BEGIN MODFLOW_GRID basegrid
	ROTATION_ANGLE = 0
	X_OFFSET = 0
	Y_OFFSET = 0
	LENGTH_UNIT = undefined
	NLAY = 1
	NROW = 40
	NCOL = 20
	DELR =  CONSTANT 250.0
	DELC =  CONSTANT 250.0
	TOP =  CONSTANT 1.0
	BOTTOM LAYER 1 =  CONSTANT 0.0
END MODFLOW_GRID

BEGIN QUADTREE quadtreegrid
	MODFLOW_GRID = basegrid
	STRUCTURE_File  = OPEN/CLOSE quadtreegrid.tsf
	TOP LAYER 1 = OPEN/CLOSE quadtreegrid.top1.dat
	BOTTOM LAYER 1 = OPEN/CLOSE quadtreegrid.bot1.dat
END QUADTREE
