# File generated by Flopy version 3.8.0.dev0 on 07/18/2024 at 09:45:52.
BEGIN options
  PRINT_OPTION  all
  COMPLEXITY  moderate
  CSV_OUTER_OUTPUT  FILEOUT  mfsim_outer.out
  CSV_INNER_OUTPUT  FILEOUT  mfsim_inner.out
END options

BEGIN nonlinear
  OUTER_DVCLOSE  1.00000000E-04
  OUTER_MAXIMUM  1000
END nonlinear

BEGIN linear
  INNER_MAXIMUM  200
  INNER_DVCLOSE  1.00000000E-04
END linear

