# File generated by Flopy version 3.8.0.dev0 on 07/18/2024 at 09:45:52.
BEGIN options
  TIME_UNITS  days
END options

BEGIN dimensions
  NPER  1
END dimensions

BEGIN perioddata
       1.00000000  1       1.00000000
END perioddata

