# File generated by Flopy version 3.8.0.dev0 on 07/18/2024 at 09:45:52.
BEGIN options
END options

BEGIN timing
  TDIS6  20240718_hipor_300.tdis
END timing

BEGIN models
  gwf6  waq_arr.nam  waq_arr
END models

BEGIN exchanges
END exchanges

BEGIN solutiongroup  1
  ims6  20240718_hipor_300.ims  waq_arr
END solutiongroup  1

