# File generated by Flopy version 3.8.0.dev0 on 09/27/2024 at 09:16:31.
BEGIN options
  LENGTH_UNITS  meters
  XORIGIN  1.66050000E+06
  YORIGIN  5.39790000E+06
END options

BEGIN dimensions
  NLAY  13
  NROW  67
  NCOL  117
END dimensions

BEGIN griddata
  delr
    OPEN/CLOSE  'waq_arr.dis_delr.txt'  FACTOR  1.0
  delc
    OPEN/CLOSE  'waq_arr.dis_delc.txt'  FACTOR  1.0
  top
    OPEN/CLOSE  'waq_arr.top.arr'  FACTOR  1.0  IPRN  -1
  botm  LAYERED
    OPEN/CLOSE  'waq_arr.bottom_layer1.arr'  FACTOR  1.0  IPRN  -1
    OPEN/CLOSE  'waq_arr.bottom_layer2.arr'  FACTOR  1.0  IPRN  -1
    OPEN/CLOSE  'waq_arr.bottom_layer3.arr'  FACTOR  1.0  IPRN  -1
    OPEN/CLOSE  'waq_arr.bottom_layer4.arr'  FACTOR  1.0  IPRN  -1
    OPEN/CLOSE  'waq_arr.bottom_layer5.arr'  FACTOR  1.0  IPRN  -1
    OPEN/CLOSE  'waq_arr.bottom_layer6.arr'  FACTOR  1.0  IPRN  -1
    OPEN/CLOSE  'waq_arr.bottom_layer7.arr'  FACTOR  1.0  IPRN  -1
    OPEN/CLOSE  'waq_arr.bottom_layer8.arr'  FACTOR  1.0  IPRN  -1
    OPEN/CLOSE  'waq_arr.bottom_layer9.arr'  FACTOR  1.0  IPRN  -1
    OPEN/CLOSE  'waq_arr.bottom_layer10.arr'  FACTOR  1.0  IPRN  -1
    OPEN/CLOSE  'waq_arr.bottom_layer11.arr'  FACTOR  1.0  IPRN  -1
    OPEN/CLOSE  'waq_arr.bottom_layer12.arr'  FACTOR  1.0  IPRN  -1
    OPEN/CLOSE  'waq_arr.bottom_layer13.arr'  FACTOR  1.0  IPRN  -1
  idomain  LAYERED
    OPEN/CLOSE  'waq_arr.domain_layer1.arr'  FACTOR  1  IPRN  -1
    OPEN/CLOSE  'waq_arr.domain_layer2.arr'  FACTOR  1  IPRN  -1
    OPEN/CLOSE  'waq_arr.domain_layer3.arr'  FACTOR  1  IPRN  -1
    OPEN/CLOSE  'waq_arr.domain_layer4.arr'  FACTOR  1  IPRN  -1
    OPEN/CLOSE  'waq_arr.domain_layer5.arr'  FACTOR  1  IPRN  -1
    OPEN/CLOSE  'waq_arr.domain_layer6.arr'  FACTOR  1  IPRN  -1
    OPEN/CLOSE  'waq_arr.domain_layer7.arr'  FACTOR  1  IPRN  -1
    OPEN/CLOSE  'waq_arr.domain_layer8.arr'  FACTOR  1  IPRN  -1
    OPEN/CLOSE  'waq_arr.domain_layer9.arr'  FACTOR  1  IPRN  -1
    OPEN/CLOSE  'waq_arr.domain_layer10.arr'  FACTOR  1  IPRN  -1
    OPEN/CLOSE  'waq_arr.domain_layer11.arr'  FACTOR  1  IPRN  -1
    OPEN/CLOSE  'waq_arr.domain_layer12.arr'  FACTOR  1  IPRN  -1
    OPEN/CLOSE  'waq_arr.domain_layer13.arr'  FACTOR  1  IPRN  -1
END griddata

