# File generated by Flopy version 3.8.0.dev0 on 07/18/2024 at 09:45:52.
BEGIN options
  SAVE_FLOWS
END options

BEGIN packages
  DIS6  waq_arr.dis  dis
  SFR6  waq_arr.sfr  sfr
  OC6  waq_arr.oc  oc
  NPF6  waq_arr.npf  npf
  IC6  waq_arr.ic  ic
  RCH6  waq_arr.rcha  rch_pmet
  GHB6  waq_arr.coast  coast
  WEL6  waq_arr.mbr  mbr
  MVR6  waq_arr.mvr  mvr
  DRN6  waq_arr.drn  drn
END packages

