pcf
* control data
             restart          estimation
       100         1         1         0         1         0
         1         1              single               point         1         0         0          noobsreref
   2.000000E+01  -3.000000E+00   3.000000E-01   1.000000E-02        -7       999          lamforgive        noderforgive
   1.000000E+01   1.000000E+01   1.000000E-03         0         0
   1.000000E-01         1   1.100000E+00               noaui          nosenreuse        noboundscale
         0   1.000000E-02         3         3   1.000000E-02         3   0.000000E+00         1  -1.000000E+00
         0         0         0         0             jcosave          verboserec          jcosaveitn          reisaveitn          parsaveitn        noparsaverun
* singular value decomposition
         1
  10000000    1.000000E-06
1
* parameter groups
pargp                   relative              1.0000000000E-02       0.0  switch                2.0000000000E+00       parabolic             1.0000000000E-05      5.0000000000E-01       smaller
* parameter data
par1                   none                   factor                4.5000000000E-01      -2.2000000000E+00     2.2000000000E+00       pargp                 1.0000000000E+00      0.0000000000E+00      1          
par10                  none                   factor                4.5000000000E-01      -2.2000000000E+00     2.2000000000E+00       pargp                 1.0000000000E+00      0.0000000000E+00      1          
par100                 none                   factor                4.5000000000E-01      -2.2000000000E+00     2.2000000000E+00       pargp                 1.0000000000E+00      0.0000000000E+00      1          
par11                  none                   factor                4.5000000000E-01      -2.2000000000E+00     2.2000000000E+00       pargp                 1.0000000000E+00      0.0000000000E+00      1          
par12                  none                   factor                4.5000000000E-01      -2.2000000000E+00     2.2000000000E+00       pargp                 1.0000000000E+00      0.0000000000E+00      1          
par13                  none                   factor                4.5000000000E-01      -2.2000000000E+00     2.2000000000E+00       pargp                 1.0000000000E+00      0.0000000000E+00      1          
par14                  none                   factor                4.5000000000E-01      -2.2000000000E+00     2.2000000000E+00       pargp                 1.0000000000E+00      0.0000000000E+00      1          
par15                  none                   factor                4.5000000000E-01      -2.2000000000E+00     2.2000000000E+00       pargp                 1.0000000000E+00      0.0000000000E+00      1          
par16                  none                   factor                4.5000000000E-01      -2.2000000000E+00     2.2000000000E+00       pargp                 1.0000000000E+00      0.0000000000E+00      1          
par17                  none                   factor                4.5000000000E-01      -2.2000000000E+00     2.2000000000E+00       pargp                 1.0000000000E+00      0.0000000000E+00      1          
par18                  none                   factor                4.5000000000E-01      -2.2000000000E+00     2.2000000000E+00       pargp                 1.0000000000E+00      0.0000000000E+00      1          
par19                  none                   factor                4.5000000000E-01      -2.2000000000E+00     2.2000000000E+00       pargp                 1.0000000000E+00      0.0000000000E+00      1          
par2                   none                   factor                4.5000000000E-01      -2.2000000000E+00     2.2000000000E+00       pargp                 1.0000000000E+00      0.0000000000E+00      1          
par20                  none                   factor                4.5000000000E-01      -2.2000000000E+00     2.2000000000E+00       pargp                 1.0000000000E+00      0.0000000000E+00      1          
par21                  none                   factor                4.5000000000E-01      -2.2000000000E+00     2.2000000000E+00       pargp                 1.0000000000E+00      0.0000000000E+00      1          
par22                  none                   factor                4.5000000000E-01      -2.2000000000E+00     2.2000000000E+00       pargp                 1.0000000000E+00      0.0000000000E+00      1          
par23                  none                   factor                4.5000000000E-01      -2.2000000000E+00     2.2000000000E+00       pargp                 1.0000000000E+00      0.0000000000E+00      1          
par24                  none                   factor                4.5000000000E-01      -2.2000000000E+00     2.2000000000E+00       pargp                 1.0000000000E+00      0.0000000000E+00      1          
par25                  none                   factor                4.5000000000E-01      -2.2000000000E+00     2.2000000000E+00       pargp                 1.0000000000E+00      0.0000000000E+00      1          
par26                  none                   factor                4.5000000000E-01      -2.2000000000E+00     2.2000000000E+00       pargp                 1.0000000000E+00      0.0000000000E+00      1          
par27                  none                   factor                4.5000000000E-01      -2.2000000000E+00     2.2000000000E+00       pargp                 1.0000000000E+00      0.0000000000E+00      1          
par28                  none                   factor                4.5000000000E-01      -2.2000000000E+00     2.2000000000E+00       pargp                 1.0000000000E+00      0.0000000000E+00      1          
par29                  none                   factor                4.5000000000E-01      -2.2000000000E+00     2.2000000000E+00       pargp                 1.0000000000E+00      0.0000000000E+00      1          
par3                   none                   factor                4.5000000000E-01      -2.2000000000E+00     2.2000000000E+00       pargp                 1.0000000000E+00      0.0000000000E+00      1          
par30                  none                   factor                4.5000000000E-01      -2.2000000000E+00     2.2000000000E+00       pargp                 1.0000000000E+00      0.0000000000E+00      1          
par31                  none                   factor                4.5000000000E-01      -2.2000000000E+00     2.2000000000E+00       pargp                 1.0000000000E+00      0.0000000000E+00      1          
par32                  none                   factor                4.5000000000E-01      -2.2000000000E+00     2.2000000000E+00       pargp                 1.0000000000E+00      0.0000000000E+00      1          
par33                  none                   factor                4.5000000000E-01      -2.2000000000E+00     2.2000000000E+00       pargp                 1.0000000000E+00      0.0000000000E+00      1          
par34                  none                   factor                4.5000000000E-01      -2.2000000000E+00     2.2000000000E+00       pargp                 1.0000000000E+00      0.0000000000E+00      1          
par35                  none                   factor                4.5000000000E-01      -2.2000000000E+00     2.2000000000E+00       pargp                 1.0000000000E+00      0.0000000000E+00      1          
par36                  none                   factor                4.5000000000E-01      -2.2000000000E+00     2.2000000000E+00       pargp                 1.0000000000E+00      0.0000000000E+00      1          
par37                  none                   factor                4.5000000000E-01      -2.2000000000E+00     2.2000000000E+00       pargp                 1.0000000000E+00      0.0000000000E+00      1          
par38                  none                   factor                4.5000000000E-01      -2.2000000000E+00     2.2000000000E+00       pargp                 1.0000000000E+00      0.0000000000E+00      1          
par39                  none                   factor                4.5000000000E-01      -2.2000000000E+00     2.2000000000E+00       pargp                 1.0000000000E+00      0.0000000000E+00      1          
par4                   none                   factor                4.5000000000E-01      -2.2000000000E+00     2.2000000000E+00       pargp                 1.0000000000E+00      0.0000000000E+00      1          
par40                  none                   factor                4.5000000000E-01      -2.2000000000E+00     2.2000000000E+00       pargp                 1.0000000000E+00      0.0000000000E+00      1          
par41                  none                   factor                4.5000000000E-01      -2.2000000000E+00     2.2000000000E+00       pargp                 1.0000000000E+00      0.0000000000E+00      1          
par42                  none                   factor                4.5000000000E-01      -2.2000000000E+00     2.2000000000E+00       pargp                 1.0000000000E+00      0.0000000000E+00      1          
par43                  none                   factor                4.5000000000E-01      -2.2000000000E+00     2.2000000000E+00       pargp                 1.0000000000E+00      0.0000000000E+00      1          
par44                  none                   factor                4.5000000000E-01      -2.2000000000E+00     2.2000000000E+00       pargp                 1.0000000000E+00      0.0000000000E+00      1          
par45                  none                   factor                4.5000000000E-01      -2.2000000000E+00     2.2000000000E+00       pargp                 1.0000000000E+00      0.0000000000E+00      1          
par46                  none                   factor                4.5000000000E-01      -2.2000000000E+00     2.2000000000E+00       pargp                 1.0000000000E+00      0.0000000000E+00      1          
par47                  none                   factor                4.5000000000E-01      -2.2000000000E+00     2.2000000000E+00       pargp                 1.0000000000E+00      0.0000000000E+00      1          
par48                  none                   factor                4.5000000000E-01      -2.2000000000E+00     2.2000000000E+00       pargp                 1.0000000000E+00      0.0000000000E+00      1          
par49                  none                   factor                4.5000000000E-01      -2.2000000000E+00     2.2000000000E+00       pargp                 1.0000000000E+00      0.0000000000E+00      1          
par5                   none                   factor                4.5000000000E-01      -2.2000000000E+00     2.2000000000E+00       pargp                 1.0000000000E+00      0.0000000000E+00      1          
par50                  none                   factor                4.5000000000E-01      -2.2000000000E+00     2.2000000000E+00       pargp                 1.0000000000E+00      0.0000000000E+00      1          
par51                  none                   factor                4.5000000000E-01      -2.2000000000E+00     2.2000000000E+00       pargp                 1.0000000000E+00      0.0000000000E+00      1          
par52                  none                   factor                4.5000000000E-01      -2.2000000000E+00     2.2000000000E+00       pargp                 1.0000000000E+00      0.0000000000E+00      1          
par53                  none                   factor                4.5000000000E-01      -2.2000000000E+00     2.2000000000E+00       pargp                 1.0000000000E+00      0.0000000000E+00      1          
par54                  none                   factor                4.5000000000E-01      -2.2000000000E+00     2.2000000000E+00       pargp                 1.0000000000E+00      0.0000000000E+00      1          
par55                  none                   factor                4.5000000000E-01      -2.2000000000E+00     2.2000000000E+00       pargp                 1.0000000000E+00      0.0000000000E+00      1          
par56                  none                   factor                4.5000000000E-01      -2.2000000000E+00     2.2000000000E+00       pargp                 1.0000000000E+00      0.0000000000E+00      1          
par57                  none                   factor                4.5000000000E-01      -2.2000000000E+00     2.2000000000E+00       pargp                 1.0000000000E+00      0.0000000000E+00      1          
par58                  none                   factor                4.5000000000E-01      -2.2000000000E+00     2.2000000000E+00       pargp                 1.0000000000E+00      0.0000000000E+00      1          
par59                  none                   factor                4.5000000000E-01      -2.2000000000E+00     2.2000000000E+00       pargp                 1.0000000000E+00      0.0000000000E+00      1          
par6                   none                   factor                4.5000000000E-01      -2.2000000000E+00     2.2000000000E+00       pargp                 1.0000000000E+00      0.0000000000E+00      1          
par60                  none                   factor                4.5000000000E-01      -2.2000000000E+00     2.2000000000E+00       pargp                 1.0000000000E+00      0.0000000000E+00      1          
par61                  none                   factor                4.5000000000E-01      -2.2000000000E+00     2.2000000000E+00       pargp                 1.0000000000E+00      0.0000000000E+00      1          
par62                  none                   factor                4.5000000000E-01      -2.2000000000E+00     2.2000000000E+00       pargp                 1.0000000000E+00      0.0000000000E+00      1          
par63                  none                   factor                4.5000000000E-01      -2.2000000000E+00     2.2000000000E+00       pargp                 1.0000000000E+00      0.0000000000E+00      1          
par64                  none                   factor                4.5000000000E-01      -2.2000000000E+00     2.2000000000E+00       pargp                 1.0000000000E+00      0.0000000000E+00      1          
par65                  none                   factor                4.5000000000E-01      -2.2000000000E+00     2.2000000000E+00       pargp                 1.0000000000E+00      0.0000000000E+00      1          
par66                  none                   factor                4.5000000000E-01      -2.2000000000E+00     2.2000000000E+00       pargp                 1.0000000000E+00      0.0000000000E+00      1          
par67                  none                   factor                4.5000000000E-01      -2.2000000000E+00     2.2000000000E+00       pargp                 1.0000000000E+00      0.0000000000E+00      1          
par68                  none                   factor                4.5000000000E-01      -2.2000000000E+00     2.2000000000E+00       pargp                 1.0000000000E+00      0.0000000000E+00      1          
par69                  none                   factor                4.5000000000E-01      -2.2000000000E+00     2.2000000000E+00       pargp                 1.0000000000E+00      0.0000000000E+00      1          
par7                   none                   factor                4.5000000000E-01      -2.2000000000E+00     2.2000000000E+00       pargp                 1.0000000000E+00      0.0000000000E+00      1          
par70                  none                   factor                4.5000000000E-01      -2.2000000000E+00     2.2000000000E+00       pargp                 1.0000000000E+00      0.0000000000E+00      1          
par71                  none                   factor                4.5000000000E-01      -2.2000000000E+00     2.2000000000E+00       pargp                 1.0000000000E+00      0.0000000000E+00      1          
par72                  none                   factor                4.5000000000E-01      -2.2000000000E+00     2.2000000000E+00       pargp                 1.0000000000E+00      0.0000000000E+00      1          
par73                  none                   factor                4.5000000000E-01      -2.2000000000E+00     2.2000000000E+00       pargp                 1.0000000000E+00      0.0000000000E+00      1          
par74                  none                   factor                4.5000000000E-01      -2.2000000000E+00     2.2000000000E+00       pargp                 1.0000000000E+00      0.0000000000E+00      1          
par75                  none                   factor                4.5000000000E-01      -2.2000000000E+00     2.2000000000E+00       pargp                 1.0000000000E+00      0.0000000000E+00      1          
par76                  none                   factor                4.5000000000E-01      -2.2000000000E+00     2.2000000000E+00       pargp                 1.0000000000E+00      0.0000000000E+00      1          
par77                  none                   factor                4.5000000000E-01      -2.2000000000E+00     2.2000000000E+00       pargp                 1.0000000000E+00      0.0000000000E+00      1          
par78                  none                   factor                4.5000000000E-01      -2.2000000000E+00     2.2000000000E+00       pargp                 1.0000000000E+00      0.0000000000E+00      1          
par79                  none                   factor                4.5000000000E-01      -2.2000000000E+00     2.2000000000E+00       pargp                 1.0000000000E+00      0.0000000000E+00      1          
par8                   none                   factor                4.5000000000E-01      -2.2000000000E+00     2.2000000000E+00       pargp                 1.0000000000E+00      0.0000000000E+00      1          
par80                  none                   factor                4.5000000000E-01      -2.2000000000E+00     2.2000000000E+00       pargp                 1.0000000000E+00      0.0000000000E+00      1          
par81                  none                   factor                4.5000000000E-01      -2.2000000000E+00     2.2000000000E+00       pargp                 1.0000000000E+00      0.0000000000E+00      1          
par82                  none                   factor                4.5000000000E-01      -2.2000000000E+00     2.2000000000E+00       pargp                 1.0000000000E+00      0.0000000000E+00      1          
par83                  none                   factor                4.5000000000E-01      -2.2000000000E+00     2.2000000000E+00       pargp                 1.0000000000E+00      0.0000000000E+00      1          
par84                  none                   factor                4.5000000000E-01      -2.2000000000E+00     2.2000000000E+00       pargp                 1.0000000000E+00      0.0000000000E+00      1          
par85                  none                   factor                4.5000000000E-01      -2.2000000000E+00     2.2000000000E+00       pargp                 1.0000000000E+00      0.0000000000E+00      1          
par86                  none                   factor                4.5000000000E-01      -2.2000000000E+00     2.2000000000E+00       pargp                 1.0000000000E+00      0.0000000000E+00      1          
par87                  none                   factor                4.5000000000E-01      -2.2000000000E+00     2.2000000000E+00       pargp                 1.0000000000E+00      0.0000000000E+00      1          
par88                  none                   factor                4.5000000000E-01      -2.2000000000E+00     2.2000000000E+00       pargp                 1.0000000000E+00      0.0000000000E+00      1          
par89                  none                   factor                4.5000000000E-01      -2.2000000000E+00     2.2000000000E+00       pargp                 1.0000000000E+00      0.0000000000E+00      1          
par9                   none                   factor                4.5000000000E-01      -2.2000000000E+00     2.2000000000E+00       pargp                 1.0000000000E+00      0.0000000000E+00      1          
par90                  none                   factor                4.5000000000E-01      -2.2000000000E+00     2.2000000000E+00       pargp                 1.0000000000E+00      0.0000000000E+00      1          
par91                  none                   factor                4.5000000000E-01      -2.2000000000E+00     2.2000000000E+00       pargp                 1.0000000000E+00      0.0000000000E+00      1          
par92                  none                   factor                4.5000000000E-01      -2.2000000000E+00     2.2000000000E+00       pargp                 1.0000000000E+00      0.0000000000E+00      1          
par93                  none                   factor                4.5000000000E-01      -2.2000000000E+00     2.2000000000E+00       pargp                 1.0000000000E+00      0.0000000000E+00      1          
par94                  none                   factor                4.5000000000E-01      -2.2000000000E+00     2.2000000000E+00       pargp                 1.0000000000E+00      0.0000000000E+00      1          
par95                  none                   factor                4.5000000000E-01      -2.2000000000E+00     2.2000000000E+00       pargp                 1.0000000000E+00      0.0000000000E+00      1          
par96                  none                   factor                4.5000000000E-01      -2.2000000000E+00     2.2000000000E+00       pargp                 1.0000000000E+00      0.0000000000E+00      1          
par97                  none                   factor                4.5000000000E-01      -2.2000000000E+00     2.2000000000E+00       pargp                 1.0000000000E+00      0.0000000000E+00      1          
par98                  none                   factor                4.5000000000E-01      -2.2000000000E+00     2.2000000000E+00       pargp                 1.0000000000E+00      0.0000000000E+00      1          
par99                  none                   factor                4.5000000000E-01      -2.2000000000E+00     2.2000000000E+00       pargp                 1.0000000000E+00      0.0000000000E+00      1
* observation groups
obj_fn               
* observation data
obs                   0.0000000000E+00      1.0000000000E+00       obj_fn
* model command line
python rosenbrock_high_dim.py
* model input/output
par.dat.tpl par.dat
obs.dat.ins obs.dat
