pcf
* control data
             restart          estimation
      2999       753        25         0         2         0
        25         3              single               point         1         0         0          noobsreref
   2.000000E+01  -3.000000E+00   3.000000E-01   1.000000E-02        -7       999          lamforgive        noderforgive
   1.000000E+01   1.000000E+01   1.000000E-03         0         0
   1.000000E-01         1   1.100000E+00               noaui          nosenreuse        noboundscale
         0   1.000000E-02         3         3   1.000000E-02         3   0.000000E+00         1  -1.000000E+00
         0         0         0         0             jcosave          verboserec          jcosaveitn          reisaveitn          parsaveitn        noparsaverun
* singular value decomposition
         1
  10000000    1.000000E-06
1
* parameter groups
 gr_hk1                  relative              1.0000000000E-02       0.0  switch                2.0000000000E+00       parabolic             1.0000000000E-05      5.0000000000E-01       smaller              
 gr_pr0                  relative              1.0000000000E-02       0.0  switch                2.0000000000E+00       parabolic             1.0000000000E-05      5.0000000000E-01       smaller              
 gr_hk2                  relative              1.0000000000E-02       0.0  switch                2.0000000000E+00       parabolic             1.0000000000E-05      5.0000000000E-01       smaller              
 gr_hk0                  relative              1.0000000000E-02       0.0  switch                2.0000000000E+00       parabolic             1.0000000000E-05      5.0000000000E-01       smaller              
 pp_rech1                relative              1.0000000000E-02       0.0  switch                2.0000000000E+00       parabolic             1.0000000000E-05      5.0000000000E-01       smaller              
 pp_prsity0              relative              1.0000000000E-02       0.0  switch                2.0000000000E+00       parabolic             1.0000000000E-05      5.0000000000E-01       smaller              
 pp_rech0                relative              1.0000000000E-02       0.0  switch                2.0000000000E+00       parabolic             1.0000000000E-05      5.0000000000E-01       smaller              
 pp_ss1                  relative              1.0000000000E-02       0.0  switch                2.0000000000E+00       parabolic             1.0000000000E-05      5.0000000000E-01       smaller              
 pp_ss2                  relative              1.0000000000E-02       0.0  switch                2.0000000000E+00       parabolic             1.0000000000E-05      5.0000000000E-01       smaller              
 pp_ss0                  relative              1.0000000000E-02       0.0  switch                2.0000000000E+00       parabolic             1.0000000000E-05      5.0000000000E-01       smaller              
 welflux_k02             relative              1.0000000000E-02       0.0  switch                2.0000000000E+00       parabolic             1.0000000000E-05      5.0000000000E-01       smaller              
 zn_vka0                 relative              1.0000000000E-02       0.0  switch                2.0000000000E+00       parabolic             1.0000000000E-05      5.0000000000E-01       smaller              
 welflux                 relative              1.0000000000E-02       0.0  switch                2.0000000000E+00       parabolic             1.0000000000E-05      5.0000000000E-01       smaller              
 cn_rech2                relative              1.0000000000E-02       0.0  switch                2.0000000000E+00       parabolic             1.0000000000E-05      5.0000000000E-01       smaller              
 cn_sy1                  relative              1.0000000000E-02       0.0  switch                2.0000000000E+00       parabolic             1.0000000000E-05      5.0000000000E-01       smaller              
 cn_hk5                  relative              1.0000000000E-02       0.0  switch                2.0000000000E+00       parabolic             1.0000000000E-05      5.0000000000E-01       smaller              
 cn_rech4                relative              1.0000000000E-02       0.0  switch                2.0000000000E+00       parabolic             1.0000000000E-05      5.0000000000E-01       smaller              
 cn_hk4                  relative              1.0000000000E-02       0.0  switch                2.0000000000E+00       parabolic             1.0000000000E-05      5.0000000000E-01       smaller              
 cn_ss5                  relative              1.0000000000E-02       0.0  switch                2.0000000000E+00       parabolic             1.0000000000E-05      5.0000000000E-01       smaller              
 cn_rech3                relative              1.0000000000E-02       0.0  switch                2.0000000000E+00       parabolic             1.0000000000E-05      5.0000000000E-01       smaller              
 cn_sy0                  relative              1.0000000000E-02       0.0  switch                2.0000000000E+00       parabolic             1.0000000000E-05      5.0000000000E-01       smaller              
 cn_ss3                  relative              1.0000000000E-02       0.0  switch                2.0000000000E+00       parabolic             1.0000000000E-05      5.0000000000E-01       smaller              
 cn_ss4                  relative              1.0000000000E-02       0.0  switch                2.0000000000E+00       parabolic             1.0000000000E-05      5.0000000000E-01       smaller              
 cn_hk3                  relative              1.0000000000E-02       0.0  switch                2.0000000000E+00       parabolic             1.0000000000E-05      5.0000000000E-01       smaller              
 cn_sy2                  relative              1.0000000000E-02       0.0  switch                2.0000000000E+00       parabolic             1.0000000000E-05      5.0000000000E-01       smaller              
* parameter data
 const_hk3__cn          log                    factor                1.0000000000E+00      1.0000000000E-01      1.0000000000E+01       cn_hk3                1.0000000000E+00      0.0000000000E+00      1          
 const_hk4__cn          log                    factor                1.0000000000E+00      1.0000000000E-01      1.0000000000E+01       cn_hk4                1.0000000000E+00      0.0000000000E+00      1          
 const_hk5__cn          log                    factor                1.0000000000E+00      1.0000000000E-01      1.0000000000E+01       cn_hk5                1.0000000000E+00      0.0000000000E+00      1          
 const_rech2__cn        log                    factor                1.0000000000E+00      1.0000000000E-01      1.0000000000E+01       cn_rech2              1.0000000000E+00      0.0000000000E+00      1          
 const_rech3__cn        log                    factor                1.0000000000E+00      1.0000000000E-01      1.0000000000E+01       cn_rech3              1.0000000000E+00      0.0000000000E+00      1          
 const_rech4__cn        log                    factor                1.0000000000E+00      1.0000000000E-01      1.0000000000E+01       cn_rech4              1.0000000000E+00      0.0000000000E+00      1          
 const_ss3__cn          log                    factor                1.0000000000E+00      1.0000000000E-01      1.0000000000E+01       cn_ss3                1.0000000000E+00      0.0000000000E+00      1          
 const_ss4__cn          log                    factor                1.0000000000E+00      1.0000000000E-01      1.0000000000E+01       cn_ss4                1.0000000000E+00      0.0000000000E+00      1          
 const_ss5__cn          log                    factor                1.0000000000E+00      1.0000000000E-01      1.0000000000E+01       cn_ss5                1.0000000000E+00      0.0000000000E+00      1          
 const_sy0__cn          log                    factor                1.0000000000E+00      1.0000000000E-01      1.0000000000E+01       cn_sy0                1.0000000000E+00      0.0000000000E+00      1          
 const_sy1__cn          log                    factor                1.0000000000E+00      1.0000000000E-01      1.0000000000E+01       cn_sy1                1.0000000000E+00      0.0000000000E+00      1          
 const_sy2__cn          log                    factor                1.0000000000E+00      1.0000000000E-01      1.0000000000E+01       cn_sy2                1.0000000000E+00      0.0000000000E+00      1          
 hk0000000              log                    factor                1.0000000000E+00      1.0000000000E-01      1.0000000000E+02       gr_hk0                1.0000000000E+00      0.0000000000E+00      1          
 hk0000001              log                    factor                1.0000000000E+00      1.0000000000E-01      1.0000000000E+02       gr_hk0                1.0000000000E+00      0.0000000000E+00      1          
 hk0000002              log                    factor                1.0000000000E+00      1.0000000000E-01      1.0000000000E+02       gr_hk0                1.0000000000E+00      0.0000000000E+00      1          
 hk0000003              log                    factor                1.0000000000E+00      1.0000000000E-01      1.0000000000E+02       gr_hk0                1.0000000000E+00      0.0000000000E+00      1          
 hk0000004              log                    factor                1.0000000000E+00      1.0000000000E-01      1.0000000000E+02       gr_hk0                1.0000000000E+00      0.0000000000E+00      1          
 hk0000005              log                    factor                1.0000000000E+00      1.0000000000E-01      1.0000000000E+02       gr_hk0                1.0000000000E+00      0.0000000000E+00      1          
 hk0000006              log                    factor                1.0000000000E+00      1.0000000000E-01      1.0000000000E+02       gr_hk0                1.0000000000E+00      0.0000000000E+00      1          
 hk0000007              log                    factor                1.0000000000E+00      1.0000000000E-01      1.0000000000E+02       gr_hk0                1.0000000000E+00      0.0000000000E+00      1          
 hk0000008              log                    factor                1.0000000000E+00      1.0000000000E-01      1.0000000000E+02       gr_hk0                1.0000000000E+00      0.0000000000E+00      1          
 hk0000009              log                    factor                1.0000000000E+00      1.0000000000E-01      1.0000000000E+02       gr_hk0                1.0000000000E+00      0.0000000000E+00      1          
 hk0000010              log                    factor                1.0000000000E+00      1.0000000000E-01      1.0000000000E+02       gr_hk0                1.0000000000E+00      0.0000000000E+00      1          
 hk0000011              log                    factor                1.0000000000E+00      1.0000000000E-01      1.0000000000E+02       gr_hk0                1.0000000000E+00      0.0000000000E+00      1          
 hk0000012              log                    factor                1.0000000000E+00      1.0000000000E-01      1.0000000000E+02       gr_hk0                1.0000000000E+00      0.0000000000E+00      1          
 hk0000013              log                    factor                1.0000000000E+00      1.0000000000E-01      1.0000000000E+02       gr_hk0                1.0000000000E+00      0.0000000000E+00      1          
 hk0000014              log                    factor                1.0000000000E+00      1.0000000000E-01      1.0000000000E+02       gr_hk0                1.0000000000E+00      0.0000000000E+00      1          
 hk0000015              log                    factor                1.0000000000E+00      1.0000000000E-01      1.0000000000E+02       gr_hk0                1.0000000000E+00      0.0000000000E+00      1          
 hk0000016              log                    factor                1.0000000000E+00      1.0000000000E-01      1.0000000000E+02       gr_hk0                1.0000000000E+00      0.0000000000E+00      1          
 hk0000017              log                    factor                1.0000000000E+00      1.0000000000E-01      1.0000000000E+02       gr_hk0                1.0000000000E+00      0.0000000000E+00      1          
 hk0000018              log                    factor                1.0000000000E+00      1.0000000000E-01      1.0000000000E+02       gr_hk0                1.0000000000E+00      0.0000000000E+00      1          
 hk0000019              log                    factor                1.0000000000E+00      1.0000000000E-01      1.0000000000E+02       gr_hk0                1.0000000000E+00      0.0000000000E+00      1          
 hk0001000              log                    factor                1.0000000000E+00      1.0000000000E-01      1.0000000000E+02       gr_hk0                1.0000000000E+00      0.0000000000E+00      1          
 hk0001001              log                    factor                1.0000000000E+00      1.0000000000E-01      1.0000000000E+02       gr_hk0                1.0000000000E+00      0.0000000000E+00      1          
 hk0001002              log                    factor                1.0000000000E+00      1.0000000000E-01      1.0000000000E+02       gr_hk0                1.0000000000E+00      0.0000000000E+00      1          
 hk0001003              log                    factor                1.0000000000E+00      1.0000000000E-01      1.0000000000E+02       gr_hk0                1.0000000000E+00      0.0000000000E+00      1          
 hk0001004              log                    factor                1.0000000000E+00      1.0000000000E-01      1.0000000000E+02       gr_hk0                1.0000000000E+00      0.0000000000E+00      1          
 hk0001005              log                    factor                1.0000000000E+00      1.0000000000E-01      1.0000000000E+02       gr_hk0                1.0000000000E+00      0.0000000000E+00      1          
 hk0001006              log                    factor                1.0000000000E+00      1.0000000000E-01      1.0000000000E+02       gr_hk0                1.0000000000E+00      0.0000000000E+00      1          
 hk0001007              log                    factor                1.0000000000E+00      1.0000000000E-01      1.0000000000E+02       gr_hk0                1.0000000000E+00      0.0000000000E+00      1          
 hk0001008              log                    factor                1.0000000000E+00      1.0000000000E-01      1.0000000000E+02       gr_hk0                1.0000000000E+00      0.0000000000E+00      1          
 hk0001009              log                    factor                1.0000000000E+00      1.0000000000E-01      1.0000000000E+02       gr_hk0                1.0000000000E+00      0.0000000000E+00      1          
 hk0001010              log                    factor                1.0000000000E+00      1.0000000000E-01      1.0000000000E+02       gr_hk0                1.0000000000E+00      0.0000000000E+00      1          
 hk0001011              log                    factor                1.0000000000E+00      1.0000000000E-01      1.0000000000E+02       gr_hk0                1.0000000000E+00      0.0000000000E+00      1          
 hk0001012              log                    factor                1.0000000000E+00      1.0000000000E-01      1.0000000000E+02       gr_hk0                1.0000000000E+00      0.0000000000E+00      1          
 hk0001013              log                    factor                1.0000000000E+00      1.0000000000E-01      1.0000000000E+02       gr_hk0                1.0000000000E+00      0.0000000000E+00      1          
 hk0001014              log                    factor                1.0000000000E+00      1.0000000000E-01      1.0000000000E+02       gr_hk0                1.0000000000E+00      0.0000000000E+00      1          
 hk0001015              log                    factor                1.0000000000E+00      1.0000000000E-01      1.0000000000E+02       gr_hk0                1.0000000000E+00      0.0000000000E+00      1          
 hk0001016              log                    factor                1.0000000000E+00      1.0000000000E-01      1.0000000000E+02       gr_hk0                1.0000000000E+00      0.0000000000E+00      1          
 hk0001017              log                    factor                1.0000000000E+00      1.0000000000E-01      1.0000000000E+02       gr_hk0                1.0000000000E+00      0.0000000000E+00      1          
 hk0001018              log                    factor                1.0000000000E+00      1.0000000000E-01      1.0000000000E+02       gr_hk0                1.0000000000E+00      0.0000000000E+00      1          
 hk0001019              log                    factor                1.0000000000E+00      1.0000000000E-01      1.0000000000E+02       gr_hk0                1.0000000000E+00      0.0000000000E+00      1          
 hk0002000              log                    factor                1.0000000000E+00      1.0000000000E-01      1.0000000000E+02       gr_hk0                1.0000000000E+00      0.0000000000E+00      1          
 hk0002001              log                    factor                1.0000000000E+00      1.0000000000E-01      1.0000000000E+02       gr_hk0                1.0000000000E+00      0.0000000000E+00      1          
 hk0002002              log                    factor                1.0000000000E+00      1.0000000000E-01      1.0000000000E+02       gr_hk0                1.0000000000E+00      0.0000000000E+00      1          
 hk0002003              log                    factor                1.0000000000E+00      1.0000000000E-01      1.0000000000E+02       gr_hk0                1.0000000000E+00      0.0000000000E+00      1          
 hk0002004              log                    factor                1.0000000000E+00      1.0000000000E-01      1.0000000000E+02       gr_hk0                1.0000000000E+00      0.0000000000E+00      1          
 hk0002005              log                    factor                1.0000000000E+00      1.0000000000E-01      1.0000000000E+02       gr_hk0                1.0000000000E+00      0.0000000000E+00      1          
 hk0002006              log                    factor                1.0000000000E+00      1.0000000000E-01      1.0000000000E+02       gr_hk0                1.0000000000E+00      0.0000000000E+00      1          
 hk0002007              log                    factor                1.0000000000E+00      1.0000000000E-01      1.0000000000E+02       gr_hk0                1.0000000000E+00      0.0000000000E+00      1          
 hk0002008              log                    factor                1.0000000000E+00      1.0000000000E-01      1.0000000000E+02       gr_hk0                1.0000000000E+00      0.0000000000E+00      1          
 hk0002009              log                    factor                1.0000000000E+00      1.0000000000E-01      1.0000000000E+02       gr_hk0                1.0000000000E+00      0.0000000000E+00      1          
 hk0002010              log                    factor                1.0000000000E+00      1.0000000000E-01      1.0000000000E+02       gr_hk0                1.0000000000E+00      0.0000000000E+00      1          
 hk0002011              log                    factor                1.0000000000E+00      1.0000000000E-01      1.0000000000E+02       gr_hk0                1.0000000000E+00      0.0000000000E+00      1          
 hk0002012              log                    factor                1.0000000000E+00      1.0000000000E-01      1.0000000000E+02       gr_hk0                1.0000000000E+00      0.0000000000E+00      1          
 hk0002013              log                    factor                1.0000000000E+00      1.0000000000E-01      1.0000000000E+02       gr_hk0                1.0000000000E+00      0.0000000000E+00      1          
 hk0002014              log                    factor                1.0000000000E+00      1.0000000000E-01      1.0000000000E+02       gr_hk0                1.0000000000E+00      0.0000000000E+00      1          
 hk0002015              log                    factor                1.0000000000E+00      1.0000000000E-01      1.0000000000E+02       gr_hk0                1.0000000000E+00      0.0000000000E+00      1          
 hk0002016              log                    factor                1.0000000000E+00      1.0000000000E-01      1.0000000000E+02       gr_hk0                1.0000000000E+00      0.0000000000E+00      1          
 hk0002017              log                    factor                1.0000000000E+00      1.0000000000E-01      1.0000000000E+02       gr_hk0                1.0000000000E+00      0.0000000000E+00      1          
 hk0002018              log                    factor                1.0000000000E+00      1.0000000000E-01      1.0000000000E+02       gr_hk0                1.0000000000E+00      0.0000000000E+00      1          
 hk0002019              log                    factor                1.0000000000E+00      1.0000000000E-01      1.0000000000E+02       gr_hk0                1.0000000000E+00      0.0000000000E+00      1          
 hk0003000              log                    factor                1.0000000000E+00      1.0000000000E-01      1.0000000000E+02       gr_hk0                1.0000000000E+00      0.0000000000E+00      1          
 hk0003001              log                    factor                1.0000000000E+00      1.0000000000E-01      1.0000000000E+02       gr_hk0                1.0000000000E+00      0.0000000000E+00      1          
 hk0003002              log                    factor                1.0000000000E+00      1.0000000000E-01      1.0000000000E+02       gr_hk0                1.0000000000E+00      0.0000000000E+00      1          
 hk0003003              log                    factor                1.0000000000E+00      1.0000000000E-01      1.0000000000E+02       gr_hk0                1.0000000000E+00      0.0000000000E+00      1          
 hk0003004              log                    factor                1.0000000000E+00      1.0000000000E-01      1.0000000000E+02       gr_hk0                1.0000000000E+00      0.0000000000E+00      1          
 hk0003005              log                    factor                1.0000000000E+00      1.0000000000E-01      1.0000000000E+02       gr_hk0                1.0000000000E+00      0.0000000000E+00      1          
 hk0003006              log                    factor                1.0000000000E+00      1.0000000000E-01      1.0000000000E+02       gr_hk0                1.0000000000E+00      0.0000000000E+00      1          
 hk0003007              log                    factor                1.0000000000E+00      1.0000000000E-01      1.0000000000E+02       gr_hk0                1.0000000000E+00      0.0000000000E+00      1          
 hk0003008              log                    factor                1.0000000000E+00      1.0000000000E-01      1.0000000000E+02       gr_hk0                1.0000000000E+00      0.0000000000E+00      1          
 hk0003009              log                    factor                1.0000000000E+00      1.0000000000E-01      1.0000000000E+02       gr_hk0                1.0000000000E+00      0.0000000000E+00      1          
 hk0003010              log                    factor                1.0000000000E+00      1.0000000000E-01      1.0000000000E+02       gr_hk0                1.0000000000E+00      0.0000000000E+00      1          
 hk0003011              log                    factor                1.0000000000E+00      1.0000000000E-01      1.0000000000E+02       gr_hk0                1.0000000000E+00      0.0000000000E+00      1          
 hk0003012              log                    factor                1.0000000000E+00      1.0000000000E-01      1.0000000000E+02       gr_hk0                1.0000000000E+00      0.0000000000E+00      1          
 hk0003013              log                    factor                1.0000000000E+00      1.0000000000E-01      1.0000000000E+02       gr_hk0                1.0000000000E+00      0.0000000000E+00      1          
 hk0003014              log                    factor                1.0000000000E+00      1.0000000000E-01      1.0000000000E+02       gr_hk0                1.0000000000E+00      0.0000000000E+00      1          
 hk0003015              log                    factor                1.0000000000E+00      1.0000000000E-01      1.0000000000E+02       gr_hk0                1.0000000000E+00      0.0000000000E+00      1          
 hk0003016              log                    factor                1.0000000000E+00      1.0000000000E-01      1.0000000000E+02       gr_hk0                1.0000000000E+00      0.0000000000E+00      1          
 hk0003017              log                    factor                1.0000000000E+00      1.0000000000E-01      1.0000000000E+02       gr_hk0                1.0000000000E+00      0.0000000000E+00      1          
 hk0003018              log                    factor                1.0000000000E+00      1.0000000000E-01      1.0000000000E+02       gr_hk0                1.0000000000E+00      0.0000000000E+00      1          
 hk0003019              log                    factor                1.0000000000E+00      1.0000000000E-01      1.0000000000E+02       gr_hk0                1.0000000000E+00      0.0000000000E+00      1          
 hk0004000              log                    factor                1.0000000000E+00      1.0000000000E-01      1.0000000000E+02       gr_hk0                1.0000000000E+00      0.0000000000E+00      1          
 hk0004001              log                    factor                1.0000000000E+00      1.0000000000E-01      1.0000000000E+02       gr_hk0                1.0000000000E+00      0.0000000000E+00      1          
 hk0004002              log                    factor                1.0000000000E+00      1.0000000000E-01      1.0000000000E+02       gr_hk0                1.0000000000E+00      0.0000000000E+00      1          
 hk0004003              log                    factor                1.0000000000E+00      1.0000000000E-01      1.0000000000E+02       gr_hk0                1.0000000000E+00      0.0000000000E+00      1          
 hk0004004              log                    factor                1.0000000000E+00      1.0000000000E-01      1.0000000000E+02       gr_hk0                1.0000000000E+00      0.0000000000E+00      1          
 hk0004005              log                    factor                1.0000000000E+00      1.0000000000E-01      1.0000000000E+02       gr_hk0                1.0000000000E+00      0.0000000000E+00      1          
 hk0004006              log                    factor                1.0000000000E+00      1.0000000000E-01      1.0000000000E+02       gr_hk0                1.0000000000E+00      0.0000000000E+00      1          
 hk0004007              log                    factor                1.0000000000E+00      1.0000000000E-01      1.0000000000E+02       gr_hk0                1.0000000000E+00      0.0000000000E+00      1          
 hk0004008              log                    factor                1.0000000000E+00      1.0000000000E-01      1.0000000000E+02       gr_hk0                1.0000000000E+00      0.0000000000E+00      1          
 hk0004009              log                    factor                1.0000000000E+00      1.0000000000E-01      1.0000000000E+02       gr_hk0                1.0000000000E+00      0.0000000000E+00      1          
 hk0004010              log                    factor                1.0000000000E+00      1.0000000000E-01      1.0000000000E+02       gr_hk0                1.0000000000E+00      0.0000000000E+00      1          
 hk0004011              log                    factor                1.0000000000E+00      1.0000000000E-01      1.0000000000E+02       gr_hk0                1.0000000000E+00      0.0000000000E+00      1          
 hk0004012              log                    factor                1.0000000000E+00      1.0000000000E-01      1.0000000000E+02       gr_hk0                1.0000000000E+00      0.0000000000E+00      1          
 hk0004013              log                    factor                1.0000000000E+00      1.0000000000E-01      1.0000000000E+02       gr_hk0                1.0000000000E+00      0.0000000000E+00      1          
 hk0004014              log                    factor                1.0000000000E+00      1.0000000000E-01      1.0000000000E+02       gr_hk0                1.0000000000E+00      0.0000000000E+00      1          
 hk0004015              log                    factor                1.0000000000E+00      1.0000000000E-01      1.0000000000E+02       gr_hk0                1.0000000000E+00      0.0000000000E+00      1          
 hk0004016              log                    factor                1.0000000000E+00      1.0000000000E-01      1.0000000000E+02       gr_hk0                1.0000000000E+00      0.0000000000E+00      1          
 hk0004017              log                    factor                1.0000000000E+00      1.0000000000E-01      1.0000000000E+02       gr_hk0                1.0000000000E+00      0.0000000000E+00      1          
 hk0004018              log                    factor                1.0000000000E+00      1.0000000000E-01      1.0000000000E+02       gr_hk0                1.0000000000E+00      0.0000000000E+00      1          