# LPF for MODFLOW, generated by Flopy.
        53    -1E+30         0, 
         0
         0
         1
         0
         0
OPEN/CLOSE          hk_Layer_1.ref               1  (10G15.6) -1  #hk Layer 1                    
OPEN/CLOSE         vka_Layer_1.ref               1  (10G15.6) -1  #vka Layer 1                   
