# RCH for MODFLOW, generated by Flopy.
         3         0
         1        -1 # Stress period 1
CONSTANT                   0.00013824                   #rech_1
         1        -1 # Stress period 2
CONSTANT                   0.00009000                   #rech_2
         1        -1 # Stress period 3
CONSTANT                   0.00009000                   #rech_2
