# Name file for MODFLOW-NWT, generated by Flopy version 3.2.10.
#xul:0; yul:2500; rotation:0; proj4_str:+init=EPSG:4326; units:meters; lenuni:2; length_multiplier:1.0 ;start_datetime:1-1-1970
LIST               2  pp_model.list
DIS               11  pp_model.dis 
BAS6              13  pp_model.bas 
UPW               31  pp_model.upw 
OC                14  pp_model.oc 
WEL               20  pp_model.wel 
GHB               23  pp_model.ghb 
NWT               32  pp_model.nwt 
HOB               39  pp_model.hob 
DATA(BINARY)      55  pp_model.cbc REPLACE
DATA(BINARY)      51  pp_model.hds REPLACE
DATA              52  pp_model.hob.out
