# OC package for  MODFLOW-NWT, generated by Flopy.
HEAD PRINT FORMAT   0
HEAD SAVE UNIT    51
DRAWDOWN PRINT FORMAT   0
COMPACT BUDGET AUX

period 1 step 1 
  SAVE HEAD
  PRINT BUDGET
  SAVE BUDGET

period 2 step 40 
  SAVE HEAD
  PRINT BUDGET
  SAVE BUDGET

