# UPW package for  MODFLOW-NWT, generated by Flopy.
        55    -1E+30         0         0 
         1
         0
   1.000000E+00
         0
         0
INTERNAL               1  (50E15.6) -1 #hk layer 1                    
   1.391506E-01   1.300559E-01   5.287002E-01   1.305885E-01   7.100990E-01   7.776121E-02   4.082092E-02   7.355788E-02   1.150982E-01   4.401840E-02   2.482525E-02   1.852215E-01   4.646373E-01   2.336925E-01   4.899733E-01   2.030975E-01   1.519685E-01   4.448967E-01   4.031810E-01   5.203695E-01   6.481121E-02   2.197351E-02   3.702541E-02   6.471157E-02   1.950368E-01   1.966839E+00   1.787539E+00   3.590785E+00   8.699243E+00   1.015012E+01   1.932834E+01   2.457627E+00   3.726237E+00   7.065596E-01   1.337088E+00   2.637972E-01   2.608208E-01   3.539470E-02   1.080572E-01   4.569512E-01   7.079664E-01   1.131844E+00   2.661899E+00   1.842233E+00   1.230134E+00   1.734698E-01   1.674028E-01   9.051480E-02   2.090379E-01   1.328595E+00
   1.396971E-01   2.780709E-01   3.227881E-01   2.772467E-01   3.358559E-01   5.595024E-01   6.647845E-01   2.862329E-01   4.643296E-01   1.563220E-01   1.478344E-01   4.271761E-01   5.163747E-01   4.768827E-01   7.618935E-01   1.520950E+00   1.985374E+00   1.391859E+00   2.198285E-01   3.138624E-01   6.724934E-02   3.306568E-02   5.030735E-02   1.105432E-01   4.470779E-01   1.442143E+00   1.232648E+00   1.928312E+00   9.549523E+00   3.468757E+00   4.009416E+00   8.011517E+00   3.966276E+00   2.742122E+00   1.601183E+00   5.297549E-01   3.458036E-01   1.899965E-01   2.040334E-01   7.269394E-01   8.629752E-01   6.250454E-01   8.559021E-01   7.546183E-01   2.826105E-01   1.528992E-01   2.833721E-01   1.153425E-01   1.237249E-01   7.100540E-01
   8.820496E-02   2.995813E-01   1.596560E-01   3.101685E-01   4.028631E-01   4.866223E-01   1.109385E+00   6.599879E+00   1.078142E+01   3.132864E-01   5.700023E-01   5.044605E-01   8.541270E-01   1.338622E+00   1.859386E+00   2.145672E+00   1.059560E+01   4.142727E+00   6.489317E-01   2.182456E-01   7.209316E-02   8.822878E-02   2.863235E-01   3.685108E-01   3.000890E-01   6.441140E-01   1.072610E+00   4.003291E-01   2.771697E+00   1.736330E+00   1.924268E+00   3.747154E+00   4.870422E-01   8.320358E-01   1.009409E+00   3.735921E-01   1.231443E+00   1.009092E+00   4.001372E-01   1.508971E-01   7.584937E-01   4.313100E-01   1.689412E+00   5.209142E-01   2.215089E-01   1.129972E-01   3.734958E-01   3.415940E-01   1.400406E-01   4.755888E-01
   4.192680E-01   4.048033E-01   7.408543E-01   1.453862E+00   7.637198E-01   3.907068E-01   9.061472E-01   4.351582E+00   7.323168E+00   9.141964E-01   9.412425E-01   7.096392E-01   9.401900E-01   1.554919E+00   5.816477E+00   4.161868E+00   2.856882E+00   1.232660E+01   3.708316E-01   6.693977E-02   1.359788E-02   8.654420E-02   3.525382E-01   2.717859E-01   1.257511E-01   1.547746E-01   2.946753E-01   1.089328E-01   3.631919E-01   8.058302E-01   9.092797E-01   9.811383E-01   1.894928E+00   1.717253E+00   5.661678E-01   2.516092E-01   7.866465E-01   9.561644E-01   5.460691E-01   9.617128E-01   1.043096E+00   9.491334E-01   1.393969E+00   1.629447E+00   8.425627E-01   3.951429E-01   1.838536E+00   7.139872E-01   8.219601E-01   1.688595E+00
   4.714552E-02   1.410341E-01   1.810176E-01   2.374938E-01   8.242623E-02   5.494177E-01   2.539219E+00   5.892073E+00   4.968088E+00   9.666967E-01   1.997600E+00   3.882698E+00   2.858035E+00   1.715698E+00   1.273478E+00   2.069273E+00   3.022864E-01   1.497016E+00   2.741626E-01   1.806666E-01   5.846293E-02   1.954314E-02   3.134450E-01   2.220569E-01   6.597067E-02   5.918059E-02   4.651621E-01   6.733760E-01   3.310741E-01   3.509040E-01   1.365721E+00   1.384833E+00   1.560831E+00   6.438998E-01   1.600125E+00   3.833958E-01   8.391224E-01   2.558660E+00   3.585109E+00   8.013906E+00   3.738992E+00   2.303840E+00   8.307472E+00   1.103682E+01   7.343905E-01   2.284363E+00   2.067953E+01   1.877199E+01   9.639797E+00   1.529301E+01
   7.795671E-02   4.352737E-02   2.207920E-01   7.443869E-02   1.069555E-01   1.672815E-01   5.156911E-01   6.223331E-01   4.046652E+00   7.658868E-01   8.862070E-01   1.270368E+00   7.336518E-01   2.210336E-01   1.007118E+00   7.995811E-01   3.020818E-01   1.874343E-01   2.635030E-01   5.823846E-02   8.201691E-02   4.617542E-02   8.638514E-02   2.304907E-01   9.004215E-02   3.888428E-01   2.216040E-01   1.286426E+00   4.566520E-01   3.124671E-01   4.252127E-01   2.961136E+00   8.608347E-01   2.298726E-01   2.696449E-01   1.810362E-01   1.057894E+00   8.852562E-01   9.443901E-01   2.644208E+00   2.395871E+00   2.023184E+00   1.809826E+00   3.422963E+00   2.183480E+00   2.888304E+00   1.209673E+01   3.856565E+01   5.090421E+01   5.903265E+01
   2.926874E-02   3.389440E-02   6.437296E-02   1.832899E-02   4.070365E-02   8.159492E-02   1.787489E-01   3.288926E-01   3.635757E-01   2.809069E-01   7.871645E-01   4.131845E-02   8.684498E-02   1.977236E-01   6.350910E-01   9.507497E-01   4.185850E-01   5.850455E-01   1.124800E+00   1.986542E-01   2.499064E-01   2.985985E-01   3.598863E-01   4.655773E-01   2.002827E-01   1.630678E-01   7.725802E-02   1.579701E-01   1.215078E-01   5.770345E-01   1.381230E+00   6.581470E-01   3.840773E-01   8.613545E-02   6.308491E-02   2.188246E-01   2.903641E-01   8.383091E-01   2.679056E+00   1.720492E+00   1.582499E+00   1.347218E+01   2.892167E+00   6.197708E+00   3.255313E+00   1.725769E+01   1.114152E+01   4.232750E+01   6.033363E+01   2.102551E+01
   8.212679E-03   7.420638E-03   9.705255E-03   9.062500E-03   2.032079E-02   3.224442E-02   6.475230E-02   8.870374E-02   3.846392E-02   1.195911E-01   6.680968E-02   2.308631E-01   3.082129E-02   1.421262E-01   8.142639E-01   5.766420E-01   7.015668E-01   1.537066E+00   2.077620E-01   2.261275E-01   1.708250E-01   6.818990E-01   1.646913E-01   1.178404E+00   2.312819E+00   2.909674E-01   1.154430E-01   2.118011E-01   1.392109E-01   1.055479E+00   9.821201E-01   1.150157E+00   2.545723E-01   1.056523E-01   4.378181E-02   7.509093E-01   1.511811E+00   8.771358E-01   1.526313E+00   9.129872E-01   3.395441E+00   3.922916E+00   6.852676E+00   1.147692E+01   1.174769E+01   1.143130E+01   3.347980E+01   2.927656E+01   1.071717E+02   7.308079E+01
   5.065358E-03   3.394116E-03   3.643538E-03   1.480320E-02   9.420805E-03   8.849287E-03   9.784434E-02   6.426180E-02   5.310182E-02   3.159116E-02   6.264573E-02   1.007760E-01   1.117937E-01   4.301998E-02   1.395027E-01   1.580227E+00   6.688222E+00   1.350391E+01   2.723001E+00   3.789628E-01   2.133504E-01   1.001010E-01   2.777946E-01   1.102770E+00   7.109138E-01   7.388271E-01   1.834451E-01   5.462340E-01   2.389520E+00   8.465536E-01   2.795586E-01   3.350500E-01   1.215339E+00   8.626916E-02   1.170871E-01   8.904593E-02   3.485465E-01   3.610024E-01   4.871471E-01   2.617737E-01   3.220687E-01   3.479238E+00   7.577116E+00   7.857720E+00   3.565952E+01   8.701248E+01   2.060558E+02   6.818105E+01   1.606950E+02   1.050772E+02
   1.035776E-02   2.409771E-03   1.222550E-02   4.924280E-03   5.138334E-02   6.273182E-02   2.816814E-01   2.718316E-01   9.480058E-02   1.517759E-02   7.141172E-02   1.549629E-01   2.708052E-01   4.613435E-01   2.336533E+00   1.087233E+00   8.478289E+00   4.315405E+01   5.878645E+00   7.574449E-01   1.278314E-01   7.089797E-02   1.213924E-01   2.444269E-01   4.072119E-01   7.077501E-01   1.969352E+00   3.941841E+00   2.663206E+00   2.229871E+00   4.103424E-01   1.400794E-01   3.343327E-01   4.248787E-01   1.180594E-01   1.327088E-01   1.028984E-01   1.404501E-01   3.787391E-01   2.733599E-01   1.351821E+00   4.545240E-01   1.374101E+00   1.516457E+01   1.913079E+01   1.128598E+02   1.059740E+02   1.560325E+02   4.568551E+02   1.159442E+02
   3.540596E-02   8.766439E-03   3.768723E-02   4.502432E-02   3.795952E-02   1.929497E-01   3.670176E-01   1.034071E-01   1.946770E-01   5.007029E-01   2.862423E-01   5.948242E-01   1.398882E+00   1.791131E+00   2.720205E+00   4.316551E+00   7.331740E+00   7.782698E+00   7.785923E+00   5.040215E-01   1.691360E-01   9.163477E-02   1.142876E+00   1.109680E+00   6.584282E-01   5.057932E-01   1.073490E+00   3.430868E+00   4.850617E+00   2.857266E+00   5.238683E+00   1.231932E+00   7.440351E-01   1.743387E+00   2.656367E-01   2.694013E-01   7.175037E-02   6.338529E-02   1.450385E+00   4.876304E-01   1.028256E+00   9.164079E-01   4.263121E+00   4.234993E+00   6.624186E+00   7.294155E+01   2.223602E+02   3.189926E+01   6.421139E+01   2.016897E+01
   2.652765E-01   4.817620E-02   8.948842E-02   1.125051E-01   1.159202E-01   9.689144E-02   2.353798E-01   1.619024E-01   4.035668E-01   1.738583E+00   1.146947E+00   2.014505E+00   2.856100E+00   2.392478E+00   2.184636E+00   1.866861E+00   1.956440E+00   2.450742E+00   2.257579E+00   6.515261E-01   1.572952E-01   1.288640E-01   6.051373E-01   3.206449E+00   1.508855E+00   6.341829E-01   7.944926E-01   2.467975E+00   3.166478E+00   2.167347E+00   3.169694E+00   1.154532E+00   5.253813E-01   1.160092E+00   2.140122E+00   1.096620E+00   1.237416E+00   3.894848E-01   1.983518E-01   2.227919E-01   1.769707E-01   8.690001E-01   1.810838E+00   5.962204E-01   1.468706E+00   6.792479E+00   1.660499E+01   1.421774E+01   2.060550E+01   5.551324E+00
   5.167587E-02   5.872164E-02   1.023093E+00   8.247811E-02   6.200532E-02   2.875311E-01   6.256223E-01   6.607310E-01   8.815823E-01   4.643227E-01   1.024831E+00   5.231351E-01   1.958125E+00   1.253519E+00   2.029026E+00   9.759835E+00   2.303733E+00   1.417681E+00   2.676687E+00   2.762532E+00   3.950322E+00   6.515302E+00   5.448704E+00   3.983557E+00   5.126816E+00   3.156097E-01   1.258145E+00   1.287758E+00   1.555276E+00   1.363338E+00   1.411795E+00   4.353924E-01   5.962449E-01   8.626049E-01   1.635096E+00   3.011141E+00   1.610632E+00   2.122870E-01   1.345220E-01   5.120119E-02   3.055927E-02   7.824443E-02   5.129705E-01   7.435900E-01   1.465604E+00   2.930113E+00   7.101901E+00   1.772432E+01   1.938740E+00   5.321716E+00
   2.321628E-01   2.129635E-01   4.225177E-01   1.932518E-01   6.857690E-02   9.662015E-01   9.764122E-01   3.742579E+00   2.250694E+00   3.010218E+00   6.693170E-01   1.822594E+00   8.864861E+00   5.978376E+00   3.921795E+00   2.449899E+00   3.247991E+00   5.558673E+00   9.666731E+00   9.334178E+00   1.915334E+01   1.092252E+01   6.717277E+00   2.367035E+01   2.083376E+00   3.142582E-01   1.483391E+00   7.013753E+00   3.515002E+00   1.147063E+00   3.765057E-01   1.618015E-01   7.894723E-01   2.457336E+00   9.051670E-01   2.547739E+00   8.028708E-01   8.071812E-01   9.419649E-02   2.331582E-02   1.298639E-01   5.724611E-02   2.256893E-01   1.170874E+00   5.320591E+00   3.589697E+00   2.149122E+00   1.398067E+00   9.567279E-01   3.751686E+00
   8.306649E-01   3.632359E-01   2.963896E-01   1.305347E-01   2.029485E-01   7.863939E-01   1.278018E+00   2.118234E+00   3.092398E+00   7.565748E-01   1.733650E+00   9.977120E-01   1.885585E+00   3.857461E+00   2.824970E+00   3.448958E+00   4.628986E+00   3.341781E+00   3.383820E+00   2.268081E+01   3.220002E+01   3.775272E+01   7.806590E+00   2.214168E+01   1.457055E+00   7.339489E-01   2.986465E-01   1.746483E+00   5.262716E+00   2.567235E+00   1.483774E+00   7.438594E-01   3.717700E+00   4.383645E+00   4.187484E-01   8.092235E-01   6.977452E-01   7.872779E-01   1.685103E-01   2.337023E-01   6.126662E-01   1.285600E-01   2.401452E-01   9.187795E-01   3.935441E-01   9.388536E-01   3.707606E-01   5.498775E-01   6.380611E-01   5.316803E+00
   1.517513E-01   1.392554E-01   4.486186E-02   1.250775E-01   1.294226E-01   4.318142E-01   6.046799E-01   1.007334E+00   3.932461E+00   3.111173E+00   1.211493E+00   1.364194E+00   1.245982E+00   2.056645E+00   6.032680E+00   5.857402E+00   7.576063E-01   1.921856E+00   8.857920E+00   2.184718E+01   1.646026E+01   3.025682E+00   1.058905E+01   3.614569E+00   6.826023E-01   4.004863E-01   5.182633E-01   4.033614E-01   4.786472E-01   1.283690E+00   1.673476E+00   9.009453E-01   9.660095E-01   4.828990E-01   5.332051E-01   1.173744E+00   9.241858E-02   6.921403E-02   8.637968E-02   9.696326E-02   1.677760E-01   2.418913E-01   7.391128E-02   2.485895E-01   1.058008E-01   1.323496E-01   3.548029E-01   6.456553E-02   1.080361E+00   4.039493E+00
   9.471783E-02   5.295893E-02   4.369348E-02   8.363229E-02   4.358912E-01   3.977968E-01   2.006814E+00   7.125943E+00   5.043337E+00   9.620684E+00   2.604500E+00   8.573866E-01   1.454962E+00   5.766250E-01   1.367046E+00   1.666137E+00   1.701724E+00   3.180641E+00   7.588735E+00   3.222032E+00   1.243311E+00   8.771797E-01   8.185496E-01   2.385626E-01   3.903349E-01   9.255916E-02   3.491837E-01   8.759420E-01   8.357400E-01   4.809330E-01   6.359708E-01   4.395601E-01   8.497553E-01   3.093327E-01   3.214325E-01   6.862135E-02   3.652796E-02   2.561728E-02   3.467200E-02   3.882125E-01   2.957609E-01   9.609701E-02   1.990982E-01   9.775056E-02   1.282903E-01   9.263197E-02   5.059056E-01   8.628501E-02   2.261596E-01   2.137339E+00
   1.019641E-01   6.457768E-02   8.199424E-02   5.526341E-01   3.825530E-01   6.562981E-01   9.927335E-01   2.125396E+00   2.141126E+00   3.079666E+00   3.011544E+00   3.776064E+00   1.390060E-01   4.677257E-02   3.676271E-01   2.898851E-01   9.749933E-01   5.446590E-01   9.612252E-01   7.124187E-01   4.091017E-01   2.545130E+00   3.247453E-01   5.802624E-01   4.096344E-01   1.664205E-01   4.731009E-01   4.927700E-01   7.905965E-01   1.393126E+00   4.748932E-01   8.512360E-01   2.587826E+00   5.090714E-01   3.769086E-01   9.758458E-02   7.398289E-02   9.250169E-02   1.572118E-01   1.206080E-01   4.907793E-02   6.627198E-02   4.879207E-02   8.333001E-02   2.248595E-01   1.876868E-01   8.489760E-01   5.559393E-02   1.194865E-01   2.407427E+00
   2.003301E-01   7.804855E-02   7.028579E-02   3.789653E-01   1.005388E+00   1.441807E+00   1.225992E+00   1.318499E+00   7.535700E-01   6.930608E-01   1.880696E+00   7.649508E+00   2.591587E-01   8.884952E-02   4.850934E-01   9.125580E-02   1.164887E-01   7.036926E-02   2.746481E-01   6.868399E-01   1.967853E+00   1.156232E+00   1.260361E+00   1.135240E+00   2.019991E-01   9.509996E-01   1.613355E+00   1.846868E+00   8.086286E-01   1.809754E+00   1.007483E+00   6.696107E-01   1.925598E+00   1.135381E+00   5.849761E-01   2.194098E-01   1.362089E-01   1.700837E-01   1.020182E-01   4.546936E-02   4.413829E-02   5.844996E-02   2.244691E-02   2.408369E-02   7.915217E-02   3.798654E-01   5.617538E-01   9.283965E-02   4.516252E-01   6.361583E-01
   1.061669E+00   4.103659E-01   4.175341E-01   7.369130E-01   9.112432E-01   7.584269E-01   3.919864E+00   1.252803E+00   1.189799E+00   4.569877E+00   4.283867E+00   1.140405E+00   4.450089E-01   1.470489E-01   3.209593E-02   2.896751E-02   2.988169E-01   9.936198E-02   3.790388E-01   1.204612E+00   7.607407E+00   1.134403E+00   2.785702E+00   2.487118E+00   4.369702E-01   3.851564E-01   4.316709E-01   5.175005E-01   1.174913E+00   5.093389E+00   1.709291E+00   1.260497E+01   1.634104E+00   2.367555E-01   1.272728E-01   8.751387E-02   9.860075E-02   8.381673E-02   1.935514E-01   8.275486E-02   8.270395E-02   4.606671E-02   8.721935E-02   1.131548E-01   1.942401E-01   1.840818E-01   9.947547E-01   6.401500E-01   6.507678E-01   5.886024E-01
   2.528425E+00   1.090230E+00   1.683993E+00   9.101502E-01   1.061136E+00   7.233306E-01   3.758025E+00   1.734428E+00   2.236780E+00   4.578359E+00   6.542075E-01   4.630294E-01   2.955273E-01   4.422951E-02   3.071930E-02   1.843149E-01   1.589219E-01   8.247791E-02   6.338395E-01   7.649634E+00   2.484512E+00   1.494991E+00   4.264914E-01   1.011245E+00   9.258299E-01   6.360779E-01   1.576422E+00   2.937703E-01   2.021653E+00   2.564500E+00   3.710735E+00   1.109663E+01   3.347279E+00   4.102342E-01   6.077843E-01   1.996524E-01   2.461732E+00   2.096345E-01   2.072465E-01   1.093951E-01   1.261204E-01   2.746253E-02   8.870474E-02   1.780042E-01   2.080356E-01   8.478357E-01   1.417397E+00   1.250140E+00   2.068823E+00   1.738786E+00
   3.193954E+00   1.503589E+00   1.085760E+00   4.885758E-01   3.464455E-01   4.676524E+00   3.713263E+00   1.157665E+00   7.250183E-01   5.935094E-01   1.858719E+00   1.049425E+00   4.499344E-01   2.467341E-01   3.154826E-02   5.803799E-02   6.082365E-02   6.314532E-02   1.281551E-01   1.580976E+00   3.596852E+00   5.680719E+00   3.150661E+00   7.720893E-01   4.217520E+00   1.202256E+00   7.864431E-01   8.261335E-01   3.549827E+00   3.565641E+00   4.633066E+00   3.357775E+00   1.781982E+00   3.334208E+00   9.470372E-01   9.614764E-01   1.115406E+00   4.208632E-01   1.778678E-01   2.387535E-01   1.526471E-01   1.489829E-01   1.482644E-01   1.554252E-01   6.959881E-01   2.689085E+00   5.887246E+00   4.569220E+00   5.360330E+00   1.051224E+01
   1.094266E+00   8.416122E-01   5.044049E-01   7.395706E-02   2.842252E-01   2.568024E+00   1.977499E+00   2.944602E-01   3.398713E-01   2.311128E-01   8.281966E-02   5.161065E-01   4.250036E-01   9.228295E-01   9.825887E-02   1.645009E-01   2.923014E-02   9.555407E-02   3.151382E-01   3.744742E+00   3.125543E+00   2.563694E+00   1.939028E+00   1.177879E+00   2.163811E+00   5.582944E+00   2.675269E+00   9.513509E-01   8.471970E-01   4.084708E+00   1.233266E+00   1.997042E+00   6.452344E+00   3.275841E+00   4.131723E-01   3.284331E-01   9.986536E-01   1.870817E+00   2.302524E-01   3.691837E-01   8.891924E-01   2.127396E+00   1.433465E+00   6.843330E-01   1.829810E+00   3.048901E+00   8.727170E+00   1.701177E+00   3.486659E+00   8.245205E+00
   1.784428E+00   1.150467E+00   1.086617E+00   1.846262E+00   2.050246E+00   2.545234E+00   2.099540E+00   1.052429E+00   3.288790E-01   2.060152E-01   2.018160E-01   1.395686E-01   1.974574E-01   2.528661E-01   2.708097E-02   1.296511E-02   2.351523E-02   6.790747E-02   2.036255E-01   1.243890E+00   1.488478E+00   3.780809E+00   1.767589E+00   3.893777E+00   4.192815E+00   3.136292E+00   4.851455E+00   1.013321E+00   1.732301E+00   2.162385E+00   9.358850E-01   4.138556E+00   6.680336E+00   5.037528E+00   8.950174E-01   7.524825E-01   1.662390E+00   3.028176E-01   5.933735E-01   1.051796E+00   1.517787E+00   1.801177E+00   4.036949E-01   8.401927E-01   1.129005E+00   3.309913E+00   4.956497E-01   2.594465E+00   5.519197E-01   1.158157E+00
   5.014676E+00   1.615750E+00   3.200790E-01   1.586418E+00   2.606319E+00   1.707187E+00   7.723230E-01   1.204982E+00   7.541800E-01   1.438519E-01   9.173532E-02   2.222120E-02   2.108277E-02   5.956196E-02   2.727972E-02   3.489868E-02   8.745077E-02   3.707316E-01   2.356815E-01   3.745713E-01   1.083917E+00   1.052459E+00   1.818554E+00   3.847933E+00   5.618657E+00   2.287323E+01   2.033777E+00   4.828143E-01   6.826933E-01   1.885005E+00   2.271934E+00   1.873778E-01   2.578095E+00   2.778753E+00   1.241678E+00   1.014001E+00   2.432034E+00   1.398776E+00   9.240149E-01   1.528431E+00   2.765927E-01   3.632828E-01   3.154295E-01   8.683372E-01   9.263131E-01   3.309283E+00   5.767139E-01   2.327116E-01   3.126603E-01   9.774140E-01
   3.104047E-01   7.815392E-01   5.146492E-01   4.469695E-01   2.442891E+00   5.189901E-01   5.078003E-01   1.789582E+00   2.521158E-01   1.146393E-01   4.248061E-02   7.107998E-02   5.129858E-02   1.311945E-01   2.641696E-01   6.027476E-02   1.421517E-01   1.516049E-01   8.507717E-02   4.619108E-01   5.638773E-01   7.803115E-01   1.010736E+00   1.178072E+00   5.036438E+00   6.049329E+00   7.471359E-01   1.554061E+00   4.565679E-01   1.360267E+00   4.556578E-01   3.426605E-01   2.679467E-01   5.331150E+00   2.629040E+00   3.202292E-01   2.855822E-01   1.240885E+00   4.260965E-01   5.281140E-01   3.763951E-01   2.510853E-01   2.860377E-01   4.563395E-01   8.954076E-01   9.811907E-01   1.583373E-01   2.255958E-01   2.160009E-01   1.868203E-01
   4.703715E-02   4.480958E-02   1.766641E-01   2.608893E-01   4.375404E-01   4.439313E-01   4.371634E-01   1.288871E+00   3.453866E-02   2.873378E-02   6.600482E-02   9.100343E-02   1.046425E-01   2.740478E-01   1.061713E-01   5.391481E-02   3.526687E-02   2.458882E-02   1.109589E-01   6.528906E-01   6.333890E-01   8.452806E-01   7.616705E-01   2.950006E-01   3.207515E-01   4.204301E-01   2.254402E-01   3.541107E-01   3.396052E-01   4.544348E-01   4.018619E-01   8.641897E-01   3.632182E-01   6.410459E-01   4.663053E-01   3.150850E+00   1.679355E+00   2.063652E-01   1.019041E-01   8.698938E-02   2.106050E-01   1.695733E-01   1.876494E-01   7.413718E-01   7.130316E-01   2.379709E+00   3.291757E-01   5.216442E-01   1.494168E-01   6.390493E-02
   2.259506E-01   3.897307E-02   1.315607E-01   5.834638E-02   1.713628E-01   6.277465E-01   5.418684E-01   2.735507E-01   1.368182E-02   2.629683E-02   1.113906E-01   1.324152E-01   6.843750E-02   3.561828E-02   2.212566E-01   5.879974E-02   1.369253E-02   1.678191E-02   3.069376E-02   7.180699E-02   2.532157E-01   1.812591E-01   3.249576E+00   2.623205E-01   1.247260E-01   1.104648E-01   4.929955E-02   3.817822E-02   1.492254E+00   2.091669E+00   1.706595E+00   9.269099E-01   4.046040E-01   1.194424E+00   7.174643E-01   5.442035E-01   1.557996E+00   7.196418E-01   3.002703E-02   1.071934E-02   9.068335E-02   1.534707E-01   9.966785E-02   2.272322E-01   1.124130E-01   4.363462E-02   1.074726E-01   3.838231E-01   4.443365E-01   2.468342E-01
   2.155354E+00   3.940563E-01   8.452600E-02   4.968157E-02   3.719867E-02   1.052654E-01   1.329267E-01   7.774933E-02   3.812288E-02   4.394116E-02   1.730055E-01   2.495583E-01   1.487070E-01   1.504579E-01   1.477280E-01   1.147641E-01   2.059648E-02   2.269586E-02   2.175830E-02   9.423257E-02   1.915257E-01   1.040562E+00   2.056175E-01   1.652215E-01   8.927286E-02   1.561571E-02   1.196463E-01   8.191411E-01   7.722768E-01   8.942589E-01   3.303087E-01   6.979657E-01   3.476737E-01   2.815300E-01   1.424850E+00   1.022285E+00   2.368768E+00   1.964426E-01   3.289800E-02   8.951063E-03   2.464719E-02   4.047089E-02   1.091871E-02   5.376061E-02   3.437275E-02   4.646141E-02   2.079907E-02   1.398892E-01   1.269491E-01   1.227739E-01
   5.270338E-01   1.742135E-01   9.600428E-02   9.595191E-02   3.136524E-02   6.382123E-02   8.930694E-02   3.844262E-02   1.120300E-02   3.364747E-02   9.064299E-02   3.684946E-02   7.310399E-02   1.958549E-01   5.242148E-02   3.075048E-02   1.725090E-02   4.931711E-02   3.801518E-02   2.285894E-02   7.582066E-02   1.827188E-01   4.476285E-02   3.622359E-02   1.366368E-02   1.494669E-02   1.794402E-01   8.134325E-01   4.938006E-01   5.436093E-01   5.151678E-02   1.718689E-01   5.264149E-01   4.535978E-01   7.118604E-01   5.530379E-01   1.484934E+00   1.949994E-01   8.985198E-02   2.046188E-02   7.231440E-02   8.474287E-02   4.181523E-02   1.587981E-02   1.505581E-02   1.968842E-02   1.223532E-02   5.529017E-02   1.148162E-01   1.209072E-01
   1.426175E+00   6.032812E-01   1.177107E+00   2.459148E-01   7.376681E-02   2.523788E-02   2.165368E-02   1.638704E-02   7.225625E-03   2.212827E-02   8.414256E-02   2.259295E-02   3.934752E-02   2.606478E-01   3.468169E-02   1.088966E-02   4.341312E-03   1.292679E-02   2.740433E-02   9.493789E-02   1.092658E-01   2.346637E-02   5.498423E-02   3.542086E-03   8.493092E-03   3.173862E-02   9.013074E-02   1.719023E-01   3.612804E-01   2.275574E-01   1.282663E-01   2.519883E-01   5.429772E-01   6.512669E-01   2.532393E+00   3.156215E-01   9.084343E-01   5.238187E-01   1.180661E-01   2.439144E-02   5.875716E-02   2.622823E-02   2.874755E-02   8.776072E-03   6.445923E-02   2.269813E-02   4.122290E-02   6.735937E-02   6.064143E-02   8.861072E-02
   9.883443E-01   9.693446E-01   3.302921E-01   9.250766E-02   2.751200E-02   9.193681E-03   8.229758E-03   8.457485E-03   9.373060E-03   1.288318E-02   3.501902E-02   7.024683E-02   1.952864E-02   3.128193E-02   1.944357E-02   2.460373E-02   9.199403E-03   2.467852E-02   1.959159E-02   1.785096E-02   1.053245E-02   9.932462E-03   4.427017E-02   2.506417E-02   1.317453E-02   1.493713E-02   3.805165E-02   2.094910E-01   4.994562E-01   7.282857E-01   6.480144E-01   1.958119E+00   1.410052E+00   1.501201E+00   1.609733E+00   2.154345E+00   1.076584E+00   1.235349E+00   1.872462E-01   9.156445E-02   5.208251E-02   1.154271E-02   1.548640E-02   1.287913E-02   3.788434E-02   1.071146E-02   5.251975E-03   1.756941E-02   3.227061E-02   1.274259E-02
   2.906059E+00   3.762001E+00   1.806864E+00   1.943297E-01   1.433614E-01   1.085404E-02   3.252530E-02   9.785430E-03   6.877840E-03   2.908852E-03   6.835379E-03   8.682876E-03   1.132032E-02   3.126209E-02   3.872051E-02   1.093179E-02   1.723293E-02   1.680755E-02   2.950816E-02   2.528793E-02   1.498146E-02   1.348124E-02   1.446045E-02   2.815527E-02   3.062340E-02   6.252491E-02   3.965124E-02   2.771420E-01   6.150413E-01   9.020465E-01   1.198736E+00   2.681232E+00   1.860984E+00   5.278986E+00   1.213601E+00   2.267484E+00   1.613174E+00   2.978605E-01   2.863517E-01   3.426206E-01   9.498046E-02   6.976711E-02   1.041924E-02   1.045862E-02   8.067206E-03   7.573910E-03   1.052378E-02   6.839269E-03   6.966126E-03   2.132966E-03
   5.402418E+00   1.683822E+01   6.218236E+00   2.188508E-01   6.215351E-02   2.128024E-02   2.468835E-02   3.507258E-02   4.580538E-03   7.537172E-03   1.176069E-02   6.904735E-03   8.490385E-03   1.963809E-02   1.424788E-02   3.230124E-02   1.669904E-02   2.029917E-02   4.123932E-02   3.305044E-02   8.408095E-03   1.444315E-02   2.860756E-02   5.588588E-02   1.323422E-01   1.234635E-01   9.810359E-01   8.135412E-01   1.363688E+00   1.648537E+00   3.177112E-01   2.132298E+00   4.692261E-01   6.939231E-01   1.354388E+00   1.793989E+00   4.740095E+00   3.113199E-01   1.741954E-01   1.000196E-01   6.625536E-02   1.244874E-01   3.524093E-02   3.546835E-02   2.855466E-02   1.991346E-02   4.167206E-03   1.504367E-03   1.779418E-03   5.859504E-03
   8.922716E+00   3.714005E+00   1.519206E+00   2.421529E-01   2.901661E-02   3.517164E-02   2.902121E-02   1.123903E-02   6.094461E-03   1.900445E-02   1.958430E-02   6.239819E-02   2.101258E-02   3.154787E-03   7.431861E-03   2.231588E-02   3.356097E-02   3.012083E-02   1.373459E-02   1.580279E-02   8.536372E-03   1.990274E-02   7.674077E-02   1.711748E-01   8.922093E-02   4.942133E-01   6.562521E-01   1.418306E+00   3.955134E+00   2.977920E+00   1.683095E+00   2.609148E+00   3.459754E+00   4.597220E-01   1.380932E+00   1.024483E+00   4.799901E-01   1.959387E-01   2.953088E-01   3.033099E-01   1.155676E-01   3.048578E-02   1.405946E-02   4.681005E-02   5.590599E-03   6.714324E-03   1.871490E-03   1.572458E-03   1.850077E-03   9.831134E-03
   3.938228E+00   1.778267E+00   9.251062E-01   2.125587E-02   4.221714E-02   8.127576E-02   3.382509E-02   4.792507E-03   7.192318E-03   6.797543E-03   3.226250E-02   2.592889E-02   5.766725E-02   9.812912E-03   1.389622E-02   3.132650E-02   5.931573E-02   1.040159E-01   5.517862E-02   1.005341E-02   8.372324E-03   2.384884E-02   1.725289E-02   5.896324E-02   1.584019E-01   3.645730E-01   4.667291E-01   1.732596E+00   1.758694E+00   1.942647E+00   1.722992E+00   1.374879E+00   1.454656E+00   7.094839E+00   7.111017E-01   3.754496E-01   2.553713E-01   2.413015E-01   1.448672E-01   4.799381E-01   2.061300E-01   1.693637E-02   2.144834E-02   7.216186E-03   6.674598E-03   2.962538E-03   4.030918E-03   1.389001E-03   5.911635E-04   9.224658E-03
   2.162716E+00   1.274870E+00   1.793820E-01   1.650327E-01   1.004051E-01   1.566931E-01   1.437722E-02   3.274964E-02   7.236424E-02   1.228677E-01   7.954726E-02   1.291637E-01   4.240727E-02   5.430188E-02   4.001231E-02   2.922544E-02   1.043510E-02   5.218364E-02   7.059345E-02   2.841804E-02   4.499635E-02   2.767671E-02   1.637539E-02   8.236156E-02   3.424346E-01   1.286540E+00   6.229000E-01   9.258042E-01   3.094071E-01   4.908454E-01   6.085348E-01   8.202556E-01   1.199291E+00   2.209815E+00   1.666925E+00   7.129559E-01   8.418438E-01   6.375371E-01   6.584761E-01   5.116282E-01   6.310162E-01   5.484589E-02   4.246200E-02   1.186455E-02   7.118974E-03   1.942288E-03   4.644884E-03   7.473519E-03   3.000403E-03   8.269650E-03
   3.068121E+00   9.577743E-01   7.457861E-02   1.167840E-01   1.229225E-01   1.006527E-01   4.492678E-02   2.893316E-02   8.472111E-02   3.885661E-01   8.154755E-02   3.659472E-02   2.944225E-02   4.705771E-02   1.815177E-02   9.075089E-03   1.563905E-02   5.908411E-02   4.418842E-02   1.051074E-01   9.900869E-02   4.632843E-02   1.283008E-01   2.579659E-01   2.039661E+00   3.580909E-01   5.954836E-01   7.069449E-01   1.104694E+00   1.913620E+00   1.992755E-01   7.331585E-01   6.432899E-01   9.677866E-01   1.681527E+00   2.206347E+00   7.687043E-01   1.098990E+00   9.042303E-01   2.276061E-01   6.750465E-02   2.721838E-02   8.557166E-02   3.587971E-02   3.278026E-02   2.272802E-02   6.739397E-03   2.624289E-02   1.477496E-02   1.793820E-03
   1.631542E-01   3.402988E-01   5.935172E-01   4.029328E-01   4.922646E-01   5.669958E-01   1.825717E-01   1.489696E-01   1.217065E-01   1.244539E-01   6.907172E-02   9.124500E-02   4.549489E-02   3.943183E-02   8.548086E-02   3.427232E-02   6.698559E-02   3.877872E-02   1.527187E-02   2.159210E-01   3.061595E-02   1.158695E-01   4.846261E-01   4.134585E+00   4.183822E+00   2.412304E+00   3.057286E-01   1.158087E+00   4.779573E-01   1.713491E-01   1.148182E-01   1.256921E+00   1.590377E+00   2.186309E+00   7.227598E-01   1.838585E-01   1.315061E-01   7.815923E-01   1.024978E+00   4.627670E-01   2.782540E-01   7.769831E-01   2.209701E-01   8.297420E-02   4.631852E-02   4.246758E-02   8.044811E-02   3.230504E-02   2.817332E-02   2.518859E-03