# HOB package for  MODFLOW-NWT, generated by Flopy.
      2009         0         0        52     -9999
         1
HO_0                    1          6          6        -41                  0.0     0.0000     0.0000     0.0000   # DATASET 3 - Observation 1
         1                                                                                                         # DATASET 5 - Observation 1
HO_0.1                  2                  0.0     0.0000                                                          # DATASET 6 - Observation 1.1
HO_0.2                  2                  1.0     0.0000                                                          # DATASET 6 - Observation 1.2
HO_0.3                  2                  2.0     0.0000                                                          # DATASET 6 - Observation 1.3
HO_0.4                  2                  3.0     0.0000                                                          # DATASET 6 - Observation 1.4
HO_0.5                  2                  4.0     0.0000                                                          # DATASET 6 - Observation 1.5
HO_0.6                  2                  5.0     0.0000                                                          # DATASET 6 - Observation 1.6
HO_0.7                  2                  6.0     0.0000                                                          # DATASET 6 - Observation 1.7
HO_0.8                  2                  7.0     0.0000                                                          # DATASET 6 - Observation 1.8
HO_0.9                  2                  8.0     0.0000                                                          # DATASET 6 - Observation 1.9
HO_0.10                 2                  9.0     0.0000                                                          # DATASET 6 - Observation 1.10
HO_0.11                 2                 10.0     0.0000                                                          # DATASET 6 - Observation 1.11
HO_0.12                 2                 11.0     0.0000                                                          # DATASET 6 - Observation 1.12
HO_0.13                 2                 12.0     0.0000                                                          # DATASET 6 - Observation 1.13
HO_0.14                 2                 13.0     0.0000                                                          # DATASET 6 - Observation 1.14
HO_0.15                 2                 14.0     0.0000                                                          # DATASET 6 - Observation 1.15
HO_0.16                 2                 15.0     0.0000                                                          # DATASET 6 - Observation 1.16
HO_0.17                 2                 16.0     0.0000                                                          # DATASET 6 - Observation 1.17
HO_0.18                 2                 17.0     0.0000                                                          # DATASET 6 - Observation 1.18
HO_0.19                 2                 18.0     0.0000                                                          # DATASET 6 - Observation 1.19
HO_0.20                 2                 19.0     0.0000                                                          # DATASET 6 - Observation 1.20
HO_0.21                 2                 20.0     0.0000                                                          # DATASET 6 - Observation 1.21
HO_0.22                 2                 21.0     0.0000                                                          # DATASET 6 - Observation 1.22
HO_0.23                 2                 22.0     0.0000                                                          # DATASET 6 - Observation 1.23
HO_0.24                 2                 23.0     0.0000                                                          # DATASET 6 - Observation 1.24
HO_0.25                 2                 24.0     0.0000                                                          # DATASET 6 - Observation 1.25
HO_0.26                 2                 25.0     0.0000                                                          # DATASET 6 - Observation 1.26
HO_0.27                 2                 26.0     0.0000                                                          # DATASET 6 - Observation 1.27
HO_0.28                 2                 27.0     0.0000                                                          # DATASET 6 - Observation 1.28
HO_0.29                 2                 28.0     0.0000                                                          # DATASET 6 - Observation 1.29
HO_0.30                 2                 29.0     0.0000                                                          # DATASET 6 - Observation 1.30
HO_0.31                 2                 30.0     0.0000                                                          # DATASET 6 - Observation 1.31
HO_0.32                 2                 31.0     0.0000                                                          # DATASET 6 - Observation 1.32
HO_0.33                 2                 32.0     0.0000                                                          # DATASET 6 - Observation 1.33
HO_0.34                 2                 33.0     0.0000                                                          # DATASET 6 - Observation 1.34
HO_0.35                 2                 34.0     0.0000                                                          # DATASET 6 - Observation 1.35
HO_0.36                 2                 35.0     0.0000                                                          # DATASET 6 - Observation 1.36
HO_0.37                 2                 36.0     0.0000                                                          # DATASET 6 - Observation 1.37
HO_0.38                 2                 37.0     0.0000                                                          # DATASET 6 - Observation 1.38
HO_0.39                 2                 38.0     0.0000                                                          # DATASET 6 - Observation 1.39
HO_0.40                 2                 39.0     0.0000                                                          # DATASET 6 - Observation 1.40
HO_0.41                 2                 40.0     0.0000                                                          # DATASET 6 - Observation 1.41
HO_1                    1         13          6        -41                  0.0     0.0000     0.0000     0.0000   # DATASET 3 - Observation 2
         1                                                                                                         # DATASET 5 - Observation 2
HO_1.1                  2                  0.0     0.0000                                                          # DATASET 6 - Observation 2.1
HO_1.2                  2                  1.0     0.0000                                                          # DATASET 6 - Observation 2.2
HO_1.3                  2                  2.0     0.0000                                                          # DATASET 6 - Observation 2.3
HO_1.4                  2                  3.0     0.0000                                                          # DATASET 6 - Observation 2.4
HO_1.5                  2                  4.0     0.0000                                                          # DATASET 6 - Observation 2.5
HO_1.6                  2                  5.0     0.0000                                                          # DATASET 6 - Observation 2.6
HO_1.7                  2                  6.0     0.0000                                                          # DATASET 6 - Observation 2.7
HO_1.8                  2                  7.0     0.0000                                                          # DATASET 6 - Observation 2.8
HO_1.9                  2                  8.0     0.0000                                                          # DATASET 6 - Observation 2.9
HO_1.10                 2                  9.0     0.0000                                                          # DATASET 6 - Observation 2.10
HO_1.11                 2                 10.0     0.0000                                                          # DATASET 6 - Observation 2.11
HO_1.12                 2                 11.0     0.0000                                                          # DATASET 6 - Observation 2.12
HO_1.13                 2                 12.0     0.0000                                                          # DATASET 6 - Observation 2.13
HO_1.14                 2                 13.0     0.0000                                                          # DATASET 6 - Observation 2.14
HO_1.15                 2                 14.0     0.0000                                                          # DATASET 6 - Observation 2.15
HO_1.16                 2                 15.0     0.0000                                                          # DATASET 6 - Observation 2.16
HO_1.17                 2                 16.0     0.0000                                                          # DATASET 6 - Observation 2.17
HO_1.18                 2                 17.0     0.0000                                                          # DATASET 6 - Observation 2.18
HO_1.19                 2                 18.0     0.0000                                                          # DATASET 6 - Observation 2.19
HO_1.20                 2                 19.0     0.0000                                                          # DATASET 6 - Observation 2.20
HO_1.21                 2                 20.0     0.0000                                                          # DATASET 6 - Observation 2.21
HO_1.22                 2                 21.0     0.0000                                                          # DATASET 6 - Observation 2.22
HO_1.23                 2                 22.0     0.0000                                                          # DATASET 6 - Observation 2.23
HO_1.24                 2                 23.0     0.0000                                                          # DATASET 6 - Observation 2.24
HO_1.25                 2                 24.0     0.0000                                                          # DATASET 6 - Observation 2.25
HO_1.26                 2                 25.0     0.0000                                                          # DATASET 6 - Observation 2.26
HO_1.27                 2                 26.0     0.0000                                                          # DATASET 6 - Observation 2.27
HO_1.28                 2                 27.0     0.0000                                                          # DATASET 6 - Observation 2.28
HO_1.29                 2                 28.0     0.0000                                                          # DATASET 6 - Observation 2.29
HO_1.30                 2                 29.0     0.0000                                                          # DATASET 6 - Observation 2.30
HO_1.31                 2                 30.0     0.0000                                                          # DATASET 6 - Observation 2.31
HO_1.32                 2                 31.0     0.0000                                                          # DATASET 6 - Observation 2.32
HO_1.33                 2                 32.0     0.0000                                                          # DATASET 6 - Observation 2.33
HO_1.34                 2                 33.0     0.0000                                                          # DATASET 6 - Observation 2.34
HO_1.35                 2                 34.0     0.0000                                                          # DATASET 6 - Observation 2.35
HO_1.36                 2                 35.0     0.0000                                                          # DATASET 6 - Observation 2.36
HO_1.37                 2                 36.0     0.0000                                                          # DATASET 6 - Observation 2.37
HO_1.38                 2                 37.0     0.0000                                                          # DATASET 6 - Observation 2.38
HO_1.39                 2                 38.0     0.0000                                                          # DATASET 6 - Observation 2.39
HO_1.40                 2                 39.0     0.0000                                                          # DATASET 6 - Observation 2.40
HO_1.41                 2                 40.0     0.0000                                                          # DATASET 6 - Observation 2.41
HO_2                    1         20          6        -41                  0.0     0.0000     0.0000     0.0000   # DATASET 3 - Observation 3
         1                                                                                                         # DATASET 5 - Observation 3
HO_2.1                  2                  0.0     0.0000                                                          # DATASET 6 - Observation 3.1
HO_2.2                  2                  1.0     0.0000                                                          # DATASET 6 - Observation 3.2
HO_2.3                  2                  2.0     0.0000                                                          # DATASET 6 - Observation 3.3
HO_2.4                  2                  3.0     0.0000                                                          # DATASET 6 - Observation 3.4
HO_2.5                  2                  4.0     0.0000                                                          # DATASET 6 - Observation 3.5
HO_2.6                  2                  5.0     0.0000                                                          # DATASET 6 - Observation 3.6
HO_2.7                  2                  6.0     0.0000                                                          # DATASET 6 - Observation 3.7
HO_2.8                  2                  7.0     0.0000                                                          # DATASET 6 - Observation 3.8
HO_2.9                  2                  8.0     0.0000                                                          # DATASET 6 - Observation 3.9
HO_2.10                 2                  9.0     0.0000                                                          # DATASET 6 - Observation 3.10
HO_2.11                 2                 10.0     0.0000                                                          # DATASET 6 - Observation 3.11
HO_2.12                 2                 11.0     0.0000                                                          # DATASET 6 - Observation 3.12
HO_2.13                 2                 12.0     0.0000                                                          # DATASET 6 - Observation 3.13
HO_2.14                 2                 13.0     0.0000                                                          # DATASET 6 - Observation 3.14
HO_2.15                 2                 14.0     0.0000                                                          # DATASET 6 - Observation 3.15
HO_2.16                 2                 15.0     0.0000                                                          # DATASET 6 - Observation 3.16
HO_2.17                 2                 16.0     0.0000                                                          # DATASET 6 - Observation 3.17
HO_2.18                 2                 17.0     0.0000                                                          # DATASET 6 - Observation 3.18
HO_2.19                 2                 18.0     0.0000                                                          # DATASET 6 - Observation 3.19
HO_2.20                 2                 19.0     0.0000                                                          # DATASET 6 - Observation 3.20
HO_2.21                 2                 20.0     0.0000                                                          # DATASET 6 - Observation 3.21
HO_2.22                 2                 21.0     0.0000                                                          # DATASET 6 - Observation 3.22
HO_2.23                 2                 22.0     0.0000                                                          # DATASET 6 - Observation 3.23
HO_2.24                 2                 23.0     0.0000                                                          # DATASET 6 - Observation 3.24
HO_2.25                 2                 24.0     0.0000                                                          # DATASET 6 - Observation 3.25
HO_2.26                 2                 25.0     0.0000                                                          # DATASET 6 - Observation 3.26
HO_2.27                 2                 26.0     0.0000                                                          # DATASET 6 - Observation 3.27
HO_2.28                 2                 27.0     0.0000                                                          # DATASET 6 - Observation 3.28
HO_2.29                 2                 28.0     0.0000                                                          # DATASET 6 - Observation 3.29
HO_2.30                 2                 29.0     0.0000                                                          # DATASET 6 - Observation 3.30
HO_2.31                 2                 30.0     0.0000                                                          # DATASET 6 - Observation 3.31
HO_2.32                 2                 31.0     0.0000                                                          # DATASET 6 - Observation 3.32
HO_2.33                 2                 32.0     0.0000                                                          # DATASET 6 - Observation 3.33
HO_2.34                 2                 33.0     0.0000                                                          # DATASET 6 - Observation 3.34
HO_2.35                 2                 34.0     0.0000                                                          # DATASET 6 - Observation 3.35
HO_2.36                 2                 35.0     0.0000                                                          # DATASET 6 - Observation 3.36
HO_2.37                 2                 36.0     0.0000                                                          # DATASET 6 - Observation 3.37
HO_2.38                 2                 37.0     0.0000                                                          # DATASET 6 - Observation 3.38
HO_2.39                 2                 38.0     0.0000                                                          # DATASET 6 - Observation 3.39
HO_2.40                 2                 39.0     0.0000                                                          # DATASET 6 - Observation 3.40
HO_2.41                 2                 40.0     0.0000                                                          # DATASET 6 - Observation 3.41
HO_3                    1         27          6        -41                  0.0     0.0000     0.0000     0.0000   # DATASET 3 - Observation 4
         1                                                                                                         # DATASET 5 - Observation 4
HO_3.1                  2                  0.0     0.0000                                                          # DATASET 6 - Observation 4.1
HO_3.2                  2                  1.0     0.0000                                                          # DATASET 6 - Observation 4.2
HO_3.3                  2                  2.0     0.0000                                                          # DATASET 6 - Observation 4.3
HO_3.4                  2                  3.0     0.0000                                                          # DATASET 6 - Observation 4.4
HO_3.5                  2                  4.0     0.0000                                                          # DATASET 6 - Observation 4.5
HO_3.6                  2                  5.0     0.0000                                                          # DATASET 6 - Observation 4.6
HO_3.7                  2                  6.0     0.0000                                                          # DATASET 6 - Observation 4.7
HO_3.8                  2                  7.0     0.0000                                                          # DATASET 6 - Observation 4.8
HO_3.9                  2                  8.0     0.0000                                                          # DATASET 6 - Observation 4.9
HO_3.10                 2                  9.0     0.0000                                                          # DATASET 6 - Observation 4.10
HO_3.11                 2                 10.0     0.0000                                                          # DATASET 6 - Observation 4.11
HO_3.12                 2                 11.0     0.0000                                                          # DATASET 6 - Observation 4.12
HO_3.13                 2                 12.0     0.0000                                                          # DATASET 6 - Observation 4.13
HO_3.14                 2                 13.0     0.0000                                                          # DATASET 6 - Observation 4.14
HO_3.15                 2                 14.0     0.0000                                                          # DATASET 6 - Observation 4.15
HO_3.16                 2                 15.0     0.0000                                                          # DATASET 6 - Observation 4.16
HO_3.17                 2                 16.0     0.0000                                                          # DATASET 6 - Observation 4.17
HO_3.18                 2                 17.0     0.0000                                                          # DATASET 6 - Observation 4.18
HO_3.19                 2                 18.0     0.0000                                                          # DATASET 6 - Observation 4.19
HO_3.20                 2                 19.0     0.0000                                                          # DATASET 6 - Observation 4.20
HO_3.21                 2                 20.0     0.0000                                                          # DATASET 6 - Observation 4.21
HO_3.22                 2                 21.0     0.0000                                                          # DATASET 6 - Observation 4.22
HO_3.23                 2                 22.0     0.0000                                                          # DATASET 6 - Observation 4.23
HO_3.24                 2                 23.0     0.0000                                                          # DATASET 6 - Observation 4.24
HO_3.25                 2                 24.0     0.0000                                                          # DATASET 6 - Observation 4.25
HO_3.26                 2                 25.0     0.0000                                                          # DATASET 6 - Observation 4.26
HO_3.27                 2                 26.0     0.0000                                                          # DATASET 6 - Observation 4.27
HO_3.28                 2                 27.0     0.0000                                                          # DATASET 6 - Observation 4.28
HO_3.29                 2                 28.0     0.0000                                                          # DATASET 6 - Observation 4.29
HO_3.30                 2                 29.0     0.0000                                                          # DATASET 6 - Observation 4.30
HO_3.31                 2                 30.0     0.0000                                                          # DATASET 6 - Observation 4.31
HO_3.32                 2                 31.0     0.0000                                                          # DATASET 6 - Observation 4.32
HO_3.33                 2                 32.0     0.0000                                                          # DATASET 6 - Observation 4.33
HO_3.34                 2                 33.0     0.0000                                                          # DATASET 6 - Observation 4.34
HO_3.35                 2                 34.0     0.0000                                                          # DATASET 6 - Observation 4.35
HO_3.36                 2                 35.0     0.0000                                                          # DATASET 6 - Observation 4.36
HO_3.37                 2                 36.0     0.0000                                                          # DATASET 6 - Observation 4.37
HO_3.38                 2                 37.0     0.0000                                                          # DATASET 6 - Observation 4.38
HO_3.39                 2                 38.0     0.0000                                                          # DATASET 6 - Observation 4.39
HO_3.40                 2                 39.0     0.0000                                                          # DATASET 6 - Observation 4.40
HO_3.41                 2                 40.0     0.0000                                                          # DATASET 6 - Observation 4.41
HO_4                    1         34          6        -41                  0.0     0.0000     0.0000     0.0000   # DATASET 3 - Observation 5
         1                                                                                                         # DATASET 5 - Observation 5
HO_4.1                  2                  0.0     0.0000                                                          # DATASET 6 - Observation 5.1
HO_4.2                  2                  1.0     0.0000                                                          # DATASET 6 - Observation 5.2
HO_4.3                  2                  2.0     0.0000                                                          # DATASET 6 - Observation 5.3
HO_4.4                  2                  3.0     0.0000                                                          # DATASET 6 - Observation 5.4
HO_4.5                  2                  4.0     0.0000                                                          # DATASET 6 - Observation 5.5
HO_4.6                  2                  5.0     0.0000                                                          # DATASET 6 - Observation 5.6
HO_4.7                  2                  6.0     0.0000                                                          # DATASET 6 - Observation 5.7
HO_4.8                  2                  7.0     0.0000                                                          # DATASET 6 - Observation 5.8
HO_4.9                  2                  8.0     0.0000                                                          # DATASET 6 - Observation 5.9
HO_4.10                 2                  9.0     0.0000                                                          # DATASET 6 - Observation 5.10
HO_4.11                 2                 10.0     0.0000                                                          # DATASET 6 - Observation 5.11
HO_4.12                 2                 11.0     0.0000                                                          # DATASET 6 - Observation 5.12
HO_4.13                 2                 12.0     0.0000                                                          # DATASET 6 - Observation 5.13
HO_4.14                 2                 13.0     0.0000                                                          # DATASET 6 - Observation 5.14
HO_4.15                 2                 14.0     0.0000                                                          # DATASET 6 - Observation 5.15
HO_4.16                 2                 15.0     0.0000                                                          # DATASET 6 - Observation 5.16
HO_4.17                 2                 16.0     0.0000                                                          # DATASET 6 - Observation 5.17
HO_4.18                 2                 17.0     0.0000                                                          # DATASET 6 - Observation 5.18
HO_4.19                 2                 18.0     0.0000                                                          # DATASET 6 - Observation 5.19
HO_4.20                 2                 19.0     0.0000                                                          # DATASET 6 - Observation 5.20
HO_4.21                 2                 20.0     0.0000                                                          # DATASET 6 - Observation 5.21
HO_4.22                 2                 21.0     0.0000                                                          # DATASET 6 - Observation 5.22
HO_4.23                 2                 22.0     0.0000                                                          # DATASET 6 - Observation 5.23
HO_4.24                 2                 23.0     0.0000                                                          # DATASET 6 - Observation 5.24
HO_4.25                 2                 24.0     0.0000                                                          # DATASET 6 - Observation 5.25
HO_4.26                 2                 25.0     0.0000                                                          # DATASET 6 - Observation 5.26
HO_4.27                 2                 26.0     0.0000                                                          # DATASET 6 - Observation 5.27
HO_4.28                 2                 27.0     0.0000                                                          # DATASET 6 - Observation 5.28
HO_4.29                 2                 28.0     0.0000                                                          # DATASET 6 - Observation 5.29
HO_4.30                 2                 29.0     0.0000                                                          # DATASET 6 - Observation 5.30
HO_4.31                 2                 30.0     0.0000                                                          # DATASET 6 - Observation 5.31