# NWT package for  MODFLOW-NWT, generated by Flopy.
 5.000e-02 2.000e+01      1000 1.000e-08         2         1         1 SPECIFIED      0.97    0.0001         0       0.1         0
         1         0         3         7         0         0         1     0.005     0.001       200
