# HOB package for  MODFLOW-NWT, generated by Flopy.
      7236         0         0        42    -1e+06
         1
obs                     1          9          9       -201                  0.0    -0.1670    -0.1670     0.0000   # DATASET 3 - Observation 1
         1                                                                                                         # DATASET 5 - Observation 1
obs_1                   2                  0.0     0.0000                                                          # DATASET 6 - Observation 1.1
obs_2                   2  0.05000000074505806     0.0000                                                          # DATASET 6 - Observation 1.2
obs_3                   2  0.10000000149011612     0.0000                                                          # DATASET 6 - Observation 1.3
obs_4                   2  0.15000000596046448     0.0000                                                          # DATASET 6 - Observation 1.4
obs_5                   2  0.20000000298023224     0.0000                                                          # DATASET 6 - Observation 1.5
obs_6                   2                 0.25     0.0000                                                          # DATASET 6 - Observation 1.6
obs_7                   2  0.30000001192092896     0.0000                                                          # DATASET 6 - Observation 1.7
obs_8                   2   0.3499999940395355     0.0000                                                          # DATASET 6 - Observation 1.8
obs_9                   2   0.4000000059604645     0.0000                                                          # DATASET 6 - Observation 1.9
obs_10                  2  0.44999998807907104     0.0000                                                          # DATASET 6 - Observation 1.10
obs_11                  2                  0.5     0.0000                                                          # DATASET 6 - Observation 1.11
obs_12                  2    0.550000011920929     0.0000                                                          # DATASET 6 - Observation 1.12
obs_13                  2   0.6000000238418579     0.0000                                                          # DATASET 6 - Observation 1.13
obs_14                  2   0.6499999761581421     0.0000                                                          # DATASET 6 - Observation 1.14
obs_15                  2    0.699999988079071     0.0000                                                          # DATASET 6 - Observation 1.15
obs_16                  2                 0.75     0.0000                                                          # DATASET 6 - Observation 1.16
obs_17                  2    0.800000011920929     0.0000                                                          # DATASET 6 - Observation 1.17
obs_18                  2   0.8500000238418579     0.0000                                                          # DATASET 6 - Observation 1.18
obs_19                  2   0.8999999761581421     0.0000                                                          # DATASET 6 - Observation 1.19
obs_20                  2    0.949999988079071     0.0000                                                          # DATASET 6 - Observation 1.20
obs_21                  2                  1.0     0.0000                                                          # DATASET 6 - Observation 1.21
obs_22                  2   1.0499999523162842     0.0000                                                          # DATASET 6 - Observation 1.22
obs_23                  2    1.100000023841858     0.0000                                                          # DATASET 6 - Observation 1.23
obs_24                  2    1.149999976158142     0.0000                                                          # DATASET 6 - Observation 1.24
obs_25                  2   1.2000000476837158     0.0000                                                          # DATASET 6 - Observation 1.25
obs_26                  2                 1.25     0.0000                                                          # DATASET 6 - Observation 1.26
obs_27                  2   1.2999999523162842     0.0000                                                          # DATASET 6 - Observation 1.27
obs_28                  2    1.350000023841858     0.0000                                                          # DATASET 6 - Observation 1.28
obs_29                  2    1.399999976158142     0.0000                                                          # DATASET 6 - Observation 1.29
obs_30                  2   1.4500000476837158     0.0000                                                          # DATASET 6 - Observation 1.30
obs_31                  2                  1.5     0.0000                                                          # DATASET 6 - Observation 1.31
obs_32                  2   1.5499999523162842     0.0000                                                          # DATASET 6 - Observation 1.32
obs_33                  2    1.600000023841858     0.0000                                                          # DATASET 6 - Observation 1.33
obs_34                  2    1.649999976158142     0.0000                                                          # DATASET 6 - Observation 1.34
obs_35                  2   1.7000000476837158     0.0000                                                          # DATASET 6 - Observation 1.35
obs_36                  2                 1.75     0.0000                                                          # DATASET 6 - Observation 1.36
obs_37                  2   1.7999999523162842     0.0000                                                          # DATASET 6 - Observation 1.37
obs_38                  2    1.850000023841858     0.0000                                                          # DATASET 6 - Observation 1.38
obs_39                  2    1.899999976158142     0.0000                                                          # DATASET 6 - Observation 1.39
obs_40                  2   1.9500000476837158     0.0000                                                          # DATASET 6 - Observation 1.40
obs_41                  2                  2.0     0.0000                                                          # DATASET 6 - Observation 1.41
obs_42                  2    2.049999952316284     0.0000                                                          # DATASET 6 - Observation 1.42
obs_43                  2   2.0999999046325684     0.0000                                                          # DATASET 6 - Observation 1.43
obs_44                  2   2.1500000953674316     0.0000                                                          # DATASET 6 - Observation 1.44
obs_45                  2    2.200000047683716     0.0000                                                          # DATASET 6 - Observation 1.45
obs_46                  2                 2.25     0.0000                                                          # DATASET 6 - Observation 1.46
obs_47                  2    2.299999952316284     0.0000                                                          # DATASET 6 - Observation 1.47
obs_48                  2   2.3499999046325684     0.0000                                                          # DATASET 6 - Observation 1.48
obs_49                  2   2.4000000953674316     0.0000                                                          # DATASET 6 - Observation 1.49
obs_50                  2    2.450000047683716     0.0000                                                          # DATASET 6 - Observation 1.50
obs_51                  2                  2.5     0.0000                                                          # DATASET 6 - Observation 1.51
obs_52                  2    2.549999952316284     0.0000                                                          # DATASET 6 - Observation 1.52
obs_53                  2   2.5999999046325684     0.0000                                                          # DATASET 6 - Observation 1.53
obs_54                  2   2.6500000953674316     0.0000                                                          # DATASET 6 - Observation 1.54
obs_55                  2    2.700000047683716     0.0000                                                          # DATASET 6 - Observation 1.55
obs_56                  2                 2.75     0.0000                                                          # DATASET 6 - Observation 1.56
obs_57                  2    2.799999952316284     0.0000                                                          # DATASET 6 - Observation 1.57
obs_58                  2   2.8499999046325684     0.0000                                                          # DATASET 6 - Observation 1.58
obs_59                  2   2.9000000953674316     0.0000                                                          # DATASET 6 - Observation 1.59
obs_60                  2    2.950000047683716     0.0000                                                          # DATASET 6 - Observation 1.60
obs_61                  2                  3.0     0.0000                                                          # DATASET 6 - Observation 1.61
obs_62                  2    3.049999952316284     0.0000                                                          # DATASET 6 - Observation 1.62
obs_63                  2   3.0999999046325684     0.0000                                                          # DATASET 6 - Observation 1.63
obs_64                  2   3.1500000953674316     0.0000                                                          # DATASET 6 - Observation 1.64
obs_65                  2    3.200000047683716     0.0000                                                          # DATASET 6 - Observation 1.65
obs_66                  2                 3.25     0.0000                                                          # DATASET 6 - Observation 1.66
obs_67                  2    3.299999952316284     0.0000                                                          # DATASET 6 - Observation 1.67
obs_68                  2   3.3499999046325684     0.0000                                                          # DATASET 6 - Observation 1.68
obs_69                  2   3.4000000953674316     0.0000                                                          # DATASET 6 - Observation 1.69
obs_70                  2    3.450000047683716     0.0000                                                          # DATASET 6 - Observation 1.70
obs_71                  2                  3.5     0.0000                                                          # DATASET 6 - Observation 1.71
obs_72                  2    3.549999952316284     0.0000                                                          # DATASET 6 - Observation 1.72
obs_73                  2   3.5999999046325684     0.0000                                                          # DATASET 6 - Observation 1.73
obs_74                  2   3.6500000953674316     0.0000                                                          # DATASET 6 - Observation 1.74
obs_75                  2    3.700000047683716     0.0000                                                          # DATASET 6 - Observation 1.75
obs_76                  2                 3.75     0.0000                                                          # DATASET 6 - Observation 1.76
obs_77                  2    3.799999952316284     0.0000                                                          # DATASET 6 - Observation 1.77
obs_78                  2   3.8499999046325684     0.0000                                                          # DATASET 6 - Observation 1.78
obs_79                  2   3.9000000953674316     0.0000                                                          # DATASET 6 - Observation 1.79
obs_80                  2    3.950000047683716     0.0000                                                          # DATASET 6 - Observation 1.80
obs_81                  2                  4.0     0.0000                                                          # DATASET 6 - Observation 1.81
obs_82                  2    4.050000190734863     0.0000                                                          # DATASET 6 - Observation 1.82
obs_83                  2    4.099999904632568     0.0000                                                          # DATASET 6 - Observation 1.83
obs_84                  2    4.150000095367432     0.0000                                                          # DATASET 6 - Observation 1.84
obs_85                  2    4.199999809265137     0.0000                                                          # DATASET 6 - Observation 1.85
obs_86                  2                 4.25     0.0000                                                          # DATASET 6 - Observation 1.86
obs_87                  2    4.300000190734863     0.0000                                                          # DATASET 6 - Observation 1.87
obs_88                  2    4.349999904632568     0.0000                                                          # DATASET 6 - Observation 1.88
obs_89                  2    4.400000095367432     0.0000                                                          # DATASET 6 - Observation 1.89
obs_90                  2    4.449999809265137     0.0000                                                          # DATASET 6 - Observation 1.90
obs_91                  2                  4.5     0.0000                                                          # DATASET 6 - Observation 1.91
obs_92                  2    4.550000190734863     0.0000                                                          # DATASET 6 - Observation 1.92
obs_93                  2    4.599999904632568     0.0000                                                          # DATASET 6 - Observation 1.93
obs_94                  2    4.650000095367432     0.0000                                                          # DATASET 6 - Observation 1.94
obs_95                  2    4.699999809265137     0.0000                                                          # DATASET 6 - Observation 1.95
obs_96                  2                 4.75     0.0000                                                          # DATASET 6 - Observation 1.96
obs_97                  2    4.800000190734863     0.0000                                                          # DATASET 6 - Observation 1.97
obs_98                  2    4.849999904632568     0.0000                                                          # DATASET 6 - Observation 1.98
obs_99                  2    4.900000095367432     0.0000                                                          # DATASET 6 - Observation 1.99
obs_100                 2    4.949999809265137     0.0000                                                          # DATASET 6 - Observation 1.100
obs_101                 2                  5.0     0.0000                                                          # DATASET 6 - Observation 1.101
obs_102                 2    5.050000190734863     0.0000                                                          # DATASET 6 - Observation 1.102
obs_103                 2    5.099999904632568     0.0000                                                          # DATASET 6 - Observation 1.103
obs_104                 2    5.150000095367432     0.0000                                                          # DATASET 6 - Observation 1.104
obs_105                 2    5.199999809265137     0.0000                                                          # DATASET 6 - Observation 1.105
obs_106                 2                 5.25     0.0000                                                          # DATASET 6 - Observation 1.106
obs_107                 2    5.300000190734863     0.0000                                                          # DATASET 6 - Observation 1.107
obs_108                 2    5.349999904632568     0.0000                                                          # DATASET 6 - Observation 1.108
obs_109                 2    5.400000095367432     0.0000                                                          # DATASET 6 - Observation 1.109
obs_110                 2    5.449999809265137     0.0000                                                          # DATASET 6 - Observation 1.110
obs_111                 2                  5.5     0.0000                                                          # DATASET 6 - Observation 1.111
obs_112                 2    5.550000190734863     0.0000                                                          # DATASET 6 - Observation 1.112
obs_113                 2    5.599999904632568     0.0000                                                          # DATASET 6 - Observation 1.113
obs_114                 2    5.650000095367432     0.0000                                                          # DATASET 6 - Observation 1.114
obs_115                 2    5.699999809265137     0.0000                                                          # DATASET 6 - Observation 1.115
obs_116                 2                 5.75     0.0000                                                          # DATASET 6 - Observation 1.116
obs_117                 2    5.800000190734863     0.0000                                                          # DATASET 6 - Observation 1.117
obs_118                 2    5.849999904632568     0.0000                                                          # DATASET 6 - Observation 1.118
obs_119                 2    5.900000095367432     0.0000                                                          # DATASET 6 - Observation 1.119
obs_120                 2    5.949999809265137     0.0000                                                          # DATASET 6 - Observation 1.120
obs_121                 2                  6.0     0.0000                                                          # DATASET 6 - Observation 1.121
obs_122                 2    6.050000190734863     0.0000                                                          # DATASET 6 - Observation 1.122
obs_123                 2    6.099999904632568     0.0000                                                          # DATASET 6 - Observation 1.123
obs_124                 2    6.150000095367432     0.0000                                                          # DATASET 6 - Observation 1.124
obs_125                 2    6.199999809265137     0.0000                                                          # DATASET 6 - Observation 1.125
obs_126                 2                 6.25     0.0000                                                          # DATASET 6 - Observation 1.126
obs_127                 2    6.300000190734863     0.0000                                                          # DATASET 6 - Observation 1.127
obs_128                 2    6.349999904632568     0.0000                                                          # DATASET 6 - Observation 1.128
obs_129                 2    6.400000095367432     0.0000                                                          # DATASET 6 - Observation 1.129
obs_130                 2    6.449999809265137     0.0000                                                          # DATASET 6 - Observation 1.130
obs_131                 2                  6.5     0.0000                                                          # DATASET 6 - Observation 1.131
obs_132                 2    6.550000190734863     0.0000                                                          # DATASET 6 - Observation 1.132
obs_133                 2    6.599999904632568     0.0000                                                          # DATASET 6 - Observation 1.133
obs_134                 2    6.650000095367432     0.0000                                                          # DATASET 6 - Observation 1.134
obs_135                 2    6.699999809265137     0.0000                                                          # DATASET 6 - Observation 1.135
obs_136                 2                 6.75     0.0000                                                          # DATASET 6 - Observation 1.136
obs_137                 2    6.800000190734863     0.0000                                                          # DATASET 6 - Observation 1.137
obs_138                 2    6.849999904632568     0.0000                                                          # DATASET 6 - Observation 1.138
obs_139                 2    6.900000095367432     0.0000                                                          # DATASET 6 - Observation 1.139
obs_140                 2    6.949999809265137     0.0000                                                          # DATASET 6 - Observation 1.140
obs_141                 2                  7.0     0.0000                                                          # DATASET 6 - Observation 1.141
obs_142                 2    7.050000190734863     0.0000                                                          # DATASET 6 - Observation 1.142
obs_143                 2    7.099999904632568     0.0000                                                          # DATASET 6 - Observation 1.143
obs_144                 2    7.150000095367432     0.0000                                                          # DATASET 6 - Observation 1.144
obs_145                 2    7.199999809265137     0.0000                                                          # DATASET 6 - Observation 1.145
obs_146                 2                 7.25     0.0000                                                          # DATASET 6 - Observation 1.146
obs_147                 2    7.300000190734863     0.0000                                                          # DATASET 6 - Observation 1.147
obs_148                 2    7.349999904632568     0.0000                                                          # DATASET 6 - Observation 1.148
obs_149                 2    7.400000095367432     0.0000                                                          # DATASET 6 - Observation 1.149
obs_150                 2    7.449999809265137     0.0000                                                          # DATASET 6 - Observation 1.150
obs_151                 2                  7.5     0.0000                                                          # DATASET 6 - Observation 1.151
obs_152                 2    7.550000190734863     0.0000                                                          # DATASET 6 - Observation 1.152
obs_153                 2    7.599999904632568     0.0000                                                          # DATASET 6 - Observation 1.153
obs_154                 2    7.650000095367432     0.0000                                                          # DATASET 6 - Observation 1.154
obs_155                 2    7.699999809265137     0.0000                                                          # DATASET 6 - Observation 1.155
obs_156                 2                 7.75     0.0000                                                          # DATASET 6 - Observation 1.156
obs_157                 2    7.800000190734863     0.0000                                                          # DATASET 6 - Observation 1.157
obs_158                 2    7.849999904632568     0.0000                                                          # DATASET 6 - Observation 1.158
obs_159                 2    7.900000095367432     0.0000                                                          # DATASET 6 - Observation 1.159
obs_160                 2    7.949999809265137     0.0000                                                          # DATASET 6 - Observation 1.160
obs_161                 2                  8.0     0.0000                                                          # DATASET 6 - Observation 1.161
obs_162                 2    8.050000190734863     0.0000                                                          # DATASET 6 - Observation 1.162
obs_163                 2    8.100000381469727     0.0000                                                          # DATASET 6 - Observation 1.163
obs_164                 2    8.149999618530273     0.0000                                                          # DATASET 6 - Observation 1.164
obs_165                 2    8.199999809265137     0.0000                                                          # DATASET 6 - Observation 1.165
obs_166                 2                 8.25     0.0000                                                          # DATASET 6 - Observation 1.166
obs_167                 2    8.300000190734863     0.0000                                                          # DATASET 6 - Observation 1.167
obs_168                 2    8.350000381469727     0.0000                                                          # DATASET 6 - Observation 1.168
obs_169                 2    8.399999618530273     0.0000                                                          # DATASET 6 - Observation 1.169
obs_170                 2    8.449999809265137     0.0000                                                          # DATASET 6 - Observation 1.170
obs_171                 2                  8.5     0.0000                                                          # DATASET 6 - Observation 1.171
obs_172                 2    8.550000190734863     0.0000                                                          # DATASET 6 - Observation 1.172
obs_173                 2    8.600000381469727     0.0000                                                          # DATASET 6 - Observation 1.173
obs_174                 2    8.649999618530273     0.0000                                                          # DATASET 6 - Observation 1.174
obs_175                 2    8.699999809265137     0.0000                                                          # DATASET 6 - Observation 1.175
obs_176                 2                 8.75     0.0000                                                          # DATASET 6 - Observation 1.176
obs_177                 2    8.800000190734863     0.0000                                                          # DATASET 6 - Observation 1.177
obs_178                 2    8.850000381469727     0.0000                                                          # DATASET 6 - Observation 1.178
obs_179                 2    8.899999618530273     0.0000                                                          # DATASET 6 - Observation 1.179
obs_180                 2    8.949999809265137     0.0000                                                          # DATASET 6 - Observation 1.180
obs_181                 2                  9.0     0.0000                                                          # DATASET 6 - Observation 1.181
obs_182                 2    9.050000190734863     0.0000                                                          # DATASET 6 - Observation 1.182
obs_183                 2    9.100000381469727     0.0000                                                          # DATASET 6 - Observation 1.183
obs_184                 2    9.149999618530273     0.0000                                                          # DATASET 6 - Observation 1.184
obs_185                 2    9.199999809265137     0.0000                                                          # DATASET 6 - Observation 1.185
obs_186                 2                 9.25     0.0000                                                          # DATASET 6 - Observation 1.186
obs_187                 2    9.300000190734863     0.0000                                                          # DATASET 6 - Observation 1.187
obs_188                 2    9.350000381469727     0.0000                                                          # DATASET 6 - Observation 1.188
obs_189                 2    9.399999618530273     0.0000                                                          # DATASET 6 - Observation 1.189
obs_190                 2    9.449999809265137     0.0000                                                          # DATASET 6 - Observation 1.190
obs_191                 2                  9.5     0.0000                                                          # DATASET 6 - Observation 1.191
obs_192                 2    9.550000190734863     0.0000                                                          # DATASET 6 - Observation 1.192
obs_193                 2    9.600000381469727     0.0000                                                          # DATASET 6 - Observation 1.193
obs_194                 2    9.649999618530273     0.0000                                                          # DATASET 6 - Observation 1.194
obs_195                 2    9.699999809265137     0.0000                                                          # DATASET 6 - Observation 1.195
obs_196                 2                 9.75     0.0000                                                          # DATASET 6 - Observation 1.196
obs_197                 2    9.800000190734863     0.0000                                                          # DATASET 6 - Observation 1.197
obs_198                 2    9.850000381469727     0.0000                                                          # DATASET 6 - Observation 1.198
obs_199                 2    9.899999618530273     0.0000                                                          # DATASET 6 - Observation 1.199
obs_200                 2    9.949999809265137     0.0000                                                          # DATASET 6 - Observation 1.200
obs_201                 2                 10.0     0.0000                                                          # DATASET 6 - Observation 1.201
obs                     1         25          9       -201                  0.0     0.5000    -0.1670     0.0000   # DATASET 3 - Observation 2