# SFR package for  MODFLOW-NWT, generated by Flopy.
-40 40 0 0 86400.00000000 0.00010000 0 0 0 10 1 30 0 
1 1 16 1 1 250.0
1 2 16 2 1 250.0
1 3 16 3 1 250.0
1 4 16 4 1 250.0
1 5 16 5 1 250.0
1 6 16 6 1 250.0
1 7 16 7 1 250.0
1 8 16 8 1 250.0
1 9 16 9 1 250.0
1 10 16 10 1 250.0
1 11 16 11 1 250.0
1 12 16 12 1 250.0
1 13 16 13 1 250.0
1 14 16 14 1 250.0
1 15 16 15 1 250.0
1 16 16 16 1 250.0
1 17 16 17 1 250.0
1 18 16 18 1 250.0
1 19 16 19 1 250.0
1 20 16 20 1 250.0
1 21 16 21 1 250.0
1 22 16 22 1 250.0
1 23 16 23 1 250.0
1 24 16 24 1 250.0
1 25 16 25 1 250.0
1 26 16 26 1 250.0
1 27 16 27 1 250.0
1 28 16 28 1 250.0
1 29 16 29 1 250.0
1 30 16 30 1 250.0
1 31 16 31 1 250.0
1 32 16 32 1 250.0
1 33 16 33 1 250.0
1 34 16 34 1 250.0
1 35 16 35 1 250.0
1 36 16 36 1 250.0
1 37 16 37 1 250.0
1 38 16 38 1 250.0
1 39 16 39 1 250.0
1 40 16 40 1 250.0
40 0 0
1 1 2 0 0 0 0 0 0.10000000149011612 
0.10000000149011612 1.0 35.099998474121094 10.0 
0.10000000149011612 1.0 34.900001525878906 10.0 
2 1 3 0 0 0 0 0 0.10000000149011612 
0.10000000149011612 1.0 35.099998474121094 10.0 
0.10000000149011612 1.0 34.900001525878906 10.0 
3 1 4 0 0 0 0 0 0.10000000149011612 
0.10000000149011612 1.0 35.099998474121094 10.0 
0.10000000149011612 1.0 34.900001525878906 10.0 
4 1 5 0 0 0 0 0 0.10000000149011612 
0.10000000149011612 1.0 35.099998474121094 10.0 
0.10000000149011612 1.0 34.900001525878906 10.0 
5 1 6 0 0 0 0 0 0.10000000149011612 
0.10000000149011612 1.0 35.099998474121094 10.0 
0.10000000149011612 1.0 34.900001525878906 10.0 
6 1 7 0 0 0 0 0 0.10000000149011612 
0.10000000149011612 1.0 35.099998474121094 10.0 
0.10000000149011612 1.0 34.900001525878906 10.0 
7 1 8 0 0 0 0 0 0.10000000149011612 
0.10000000149011612 1.0 35.099998474121094 10.0 
0.10000000149011612 1.0 34.900001525878906 10.0 
8 1 9 0 0 0 0 0 0.10000000149011612 
0.10000000149011612 1.0 35.099998474121094 10.0 
0.10000000149011612 1.0 34.900001525878906 10.0 
9 1 10 0 0 0 0 0 0.10000000149011612 
0.10000000149011612 1.0 35.099998474121094 10.0 
0.10000000149011612 1.0 34.900001525878906 10.0 
10 1 11 0 0 0 0 0 0.10000000149011612 
0.10000000149011612 1.0 35.099998474121094 10.0 
0.10000000149011612 1.0 34.900001525878906 10.0 
11 1 12 0 0 0 0 0 0.10000000149011612 
0.10000000149011612 1.0 35.099998474121094 10.0 
0.10000000149011612 1.0 34.900001525878906 10.0 
12 1 13 0 0 0 0 0 0.10000000149011612 
0.10000000149011612 1.0 35.099998474121094 10.0 
0.10000000149011612 1.0 34.900001525878906 10.0 
13 1 14 0 0 0 0 0 0.10000000149011612 
0.10000000149011612 1.0 35.099998474121094 10.0 
0.10000000149011612 1.0 34.900001525878906 10.0 
14 1 15 0 0 0 0 0 0.10000000149011612 
0.10000000149011612 1.0 35.099998474121094 10.0 
0.10000000149011612 1.0 34.900001525878906 10.0 
15 1 16 0 0 0 0 0 0.10000000149011612 
0.10000000149011612 1.0 35.099998474121094 10.0 
0.10000000149011612 1.0 34.900001525878906 10.0 
16 1 17 0 0 0 0 0 0.10000000149011612 
0.10000000149011612 1.0 35.099998474121094 10.0 
0.10000000149011612 1.0 34.900001525878906 10.0 
17 1 18 0 0 0 0 0 0.10000000149011612 
0.10000000149011612 1.0 35.099998474121094 10.0 
0.10000000149011612 1.0 34.900001525878906 10.0 
18 1 19 0 0 0 0 0 0.10000000149011612 
0.10000000149011612 1.0 35.099998474121094 10.0 
0.10000000149011612 1.0 34.900001525878906 10.0 
19 1 20 0 0 0 0 0 0.10000000149011612 
0.10000000149011612 1.0 35.099998474121094 10.0 
0.10000000149011612 1.0 34.900001525878906 10.0 
20 1 21 0 0 0 0 0 0.10000000149011612 
0.10000000149011612 1.0 35.099998474121094 10.0 
0.10000000149011612 1.0 34.900001525878906 10.0 
21 1 22 0 0 0 0 0 0.10000000149011612 
0.10000000149011612 1.0 35.099998474121094 10.0 
0.10000000149011612 1.0 34.900001525878906 10.0 
22 1 23 0 0 0 0 0 0.10000000149011612 
0.10000000149011612 1.0 35.099998474121094 10.0 
0.10000000149011612 1.0 34.900001525878906 10.0 
23 1 24 0 0 0 0 0 0.10000000149011612 
0.10000000149011612 1.0 35.099998474121094 10.0 
0.10000000149011612 1.0 34.900001525878906 10.0 
24 1 25 0 0 0 0 0 0.10000000149011612 
0.10000000149011612 1.0 35.099998474121094 10.0 
0.10000000149011612 1.0 34.900001525878906 10.0 
25 1 26 0 0 0 0 0 0.10000000149011612 
0.10000000149011612 1.0 35.099998474121094 10.0 
0.10000000149011612 1.0 34.900001525878906 10.0 
26 1 27 0 0 0 0 0 0.10000000149011612 
0.10000000149011612 1.0 35.099998474121094 10.0 
0.10000000149011612 1.0 34.900001525878906 10.0 
27 1 28 0 0 0 0 0 0.10000000149011612 
0.10000000149011612 1.0 35.099998474121094 10.0 
0.10000000149011612 1.0 34.900001525878906 10.0 
28 1 29 0 0 0 0 0 0.10000000149011612 
0.10000000149011612 1.0 35.099998474121094 10.0 
0.10000000149011612 1.0 34.900001525878906 10.0 
29 1 30 0 0 0 0 0 0.10000000149011612 
0.10000000149011612 1.0 35.099998474121094 10.0 
0.10000000149011612 1.0 34.900001525878906 10.0 
30 1 31 0 0 0 0 0 0.10000000149011612 
0.10000000149011612 1.0 35.099998474121094 10.0 
0.10000000149011612 1.0 34.900001525878906 10.0 
31 1 32 0 0 0 0 0 0.10000000149011612 
0.10000000149011612 1.0 35.099998474121094 10.0 
0.10000000149011612 1.0 34.900001525878906 10.0 
32 1 33 0 0 0 0 0 0.10000000149011612 
0.10000000149011612 1.0 35.099998474121094 10.0 
0.10000000149011612 1.0 34.900001525878906 10.0 
33 1 34 0 0 0 0 0 0.10000000149011612 
0.10000000149011612 1.0 35.099998474121094 10.0 
0.10000000149011612 1.0 34.900001525878906 10.0 
34 1 35 0 0 0 0 0 0.10000000149011612 
0.10000000149011612 1.0 35.099998474121094 10.0 
0.10000000149011612 1.0 34.900001525878906 10.0 
35 1 36 0 0 0 0 0 0.10000000149011612 
0.10000000149011612 1.0 35.099998474121094 10.0 
0.10000000149011612 1.0 34.900001525878906 10.0 
36 1 37 0 0 0 0 0 0.10000000149011612 
0.10000000149011612 1.0 35.099998474121094 10.0 
0.10000000149011612 1.0 34.900001525878906 10.0 
37 1 38 0 0 0 0 0 0.10000000149011612 
0.10000000149011612 1.0 35.099998474121094 10.0 
0.10000000149011612 1.0 34.900001525878906 10.0 
38 1 39 0 0 0 0 0 0.10000000149011612 
0.10000000149011612 1.0 35.099998474121094 10.0 
0.10000000149011612 1.0 34.900001525878906 10.0 
39 1 40 0 0 0 0 0 0.10000000149011612 
0.10000000149011612 1.0 35.099998474121094 10.0 
0.10000000149011612 1.0 34.900001525878906 10.0 
40 1 0 0 0 0 0 0 0.10000000149011612 
0.10000000149011612 1.0 35.099998474121094 10.0 
0.10000000149011612 1.0 34.900001525878906 10.0 
-40 0 0
-1
-1
-1
-1
-1
-1
-1
-1
-1
-1
-1
-1
-1
-1
-1
-1
-1
-1
-1
-1
-1
-1
-1
-1
-1
-1
-1
-1
-1
-1
-1
-1
-1
-1
-1
-1
-1
-1
-1
-1
-1
-1
-1
-1
-1
-1
-1
-1
-1
-1
-1
-1
-1
-1
-1
-1
-1
-1
-1
-1
-1
-1
-1
-1
-1
-1
-1
-1
-1
-1
-1
-1
-1
-1
-1
-1
-1
-1
-1
-1
-1
-1
-1
-1
-1
-1
-1
-1
-1
-1
-1
-1
-1
-1
-1
-1
-1
-1
-1
-1
-1
-1
-1
-1
-1
-1
-1
-1
-1
-1
-1
-1
-1
-1
-1
-1
-1
-1
-1
-1
-1
-1
-1
-1
-1
-1
-1
-1
-1
-1
-1
-1
-1
-1
-1
-1
-1
-1
-1
-1
-1
-1
-1
-1
-1
-1
-1
-1
-1
-1
-1
-1
-1
-1
-1
-1
-1
-1
-1
-1
-1
-1
-1
-1
-1
-1
-1
-1
-1
-1
-1
-1
-1
-1
-1
-1
-1
-1
-1
-1
-1
-1
-1
-1
-1
-1
-1
-1
-1
-1
-1
-1
-1
-1
-1
-1
-1
-1
-1
-1
-1
-1
-1
-1
-1
-1
-1
-1
-1
-1
-1
-1
-1
-1
-1
-1
-1
-1
-1
-1
-1
-1
-1
-1
-1
-1
-1
-1
-1
-1
-1
-1
-1
-1
-1
-1
-1
-1
-1
-1
-1
-1
-1
-1
-1
-1
-1
-1
-1
-1
-1
-1
-1
-1
-1
-1
-1
-1
-1
-1
-1
-1
-1
-1
-1
-1
-1
-1
-1
-1
-1
-1
-1
-1
-1
-1
-1
-1
-1
-1
-1
-1
-1
-1
-1
-1
-1
-1
-1
-1
-1
-1
-1
-1
-1
-1
-1
-1
-1
-1
-1
-1
-1
-1
-1
-1
-1
-1
-1
-1
-1
-1
-1
-1
-1
-1
-1
-1
-1
-1
-1
-1
-1
-1
-1
-1
-1
-1
-1
-1
-1
-1
-1
-1
-1
-1
-1
-1
-1
-1
-1
-1
-1
-1
-1
-1
-1
-1
-1
-1
-1
-1
-1
-1
-1
-1
-1
-1
-1
-1
-1
-1
-1
-1
-1
-1
-1
-1
-1
-1
-1
-1
-1
-1
-1
-1
-1
-1
-1
-1
-1
-1
-1
-1
-1
-1
-1
-1
-1
-1
-1
-1
-1
-1
-1
-1
-1
-1
-1
-1
-1
-1
-1
-1
-1
-1
-1
-1
-1
-1
-1
-1
-1
-1
-1
-1
-1
-1
-1
-1
-1
-1
-1
-1
-1
-1
-1
-1
-1
-1
-1
-1
-1
-1
-1
-1
-1
-1
-1
-1
-1
-1
-1
-1
-1
-1
-1
-1
-1
-1
-1
-1
-1
-1
-1
-1
-1
-1
-1
-1
-1
-1
-1
-1
-1
-1
-1
-1
-1
-1
-1
-1
-1
-1
-1
-1
-1
-1
-1
-1


