pcf
* control data
restart estimation
13 3134 2 0 2
5  5  double  point  1  0  0
1.000000e+001  2.000000e+000  3.000000e-001  1.000000e-002  10
1.000000e+001  1.000000e+001  1.000000e-003
1.000000e-001 noaui
25  1.000000e-002  3  3  1.000000e-002  3 **** CONTROLS OPTIMIZATION: SEE PEST MANUAL ****
1  1  1
* parameter groups
Kh     relative   1.000000e-002  0.000000e+000  switch  2.000000e+000  parabolic
Rch    relative   1.000000e-002  0.000000e+000  switch  2.000000e+000  parabolic
* parameter data
Kkettle_____	fixed   factor   5.01987  .6	 60	Kh     1.0      0.0 1
Ksnake______	fixed   factor   7.40104    .7	 70	Kh     1.0      0.0 1
Ksunrise____	log   factor   6.0	 1.5	 150	Kh     1.0      0.0 1
Kkinni______    log   factor   3.54900   1.0     100    Kh     1.0      0.0 1
Kapple______	log   factor   18.8433	 1.95	 195	Kh     1.0      0.0 1
Kmideast____	tied   factor   18.8433	 3	 300	Kh    1.0      0.0 1
Kpolk_______	tied   factor   18.8433	 .7	 70	Kh    1.0      0.0 1
Rkettle_____	fixed  factor   8.985277E-04  .0002035	 .02035	Rch    -1.0     0.0 1
Rsnake______	fixed  factor   6.715885E-04  .0001321	 .01321	Rch    -1.0     0.0 1
Rsunrise____	none  factor   .001095	 .0001321	 .01321	Rch    -1.0     0.0 1
Rapple______	none  factor   2.195632E-03  .0001462	 .01462	Rch    -1.0     0.0 1
Rkinni______	none  factor   1.834524E-03  .0001462	 .01462	Rch    -1.0     0.0 1
neg-Rpolk___    none  factor   1.650511E-03  .0001000   .01000 Rch     1.0     0.0 1
Kmideast____ Kapple______
Kpolk_______ Kapple______
* observation groups
Head
Streamflow
* observation data
TP_000001 1070.58    0.10   Head
TP_000002 1100.11    0.10   Head
TP_000003 1106.35    0.10   Head
TP_000004 1125.02    0.10   Head
TP_000005 1181.29    0.10   Head
TP_000006 1130.81    0.10   Head
TP_000007 1072.24    0.10   Head
TP_000008 1150.40    0.10   Head
TP_000009 1074.41    0.10   Head
TP_000010 1168.62    0.10   Head
TP_000011 1085.11    0.10   Head
TP_000012 1274.03    0.10   Head
TP_000013 1269.51    0.10   Head
TP_000014 1292.00    0.10   Head
TP_000015 1072.75    0.10   Head
TP_000016 1136.96    0.10   Head
TP_000017 1118.40    0.10   Head
TP_000018  952.72    0.10   Head
TP_000019  974.73    0.10   Head
TP_000020  973.51    0.10   Head
TP_000021  915.78    0.10   Head
TP_000022  929.80    0.10   Head
TP_000023  974.97    0.10   Head
TP_000024  978.20    0.10   Head
TP_000025  971.54    0.10   Head
TP_000026  962.74    0.10   Head
TP_000027 1007.05    0.10   Head
TP_000028  979.22    0.10   Head
TP_000029 1008.06    0.10   Head
TP_000030 1004.53    0.10   Head
TP_000031  978.09    0.10   Head
TP_000032 1010.15    0.10   Head
TP_000033 1010.49    0.10   Head
TP_000034 1008.26    0.10   Head
TP_000035 1000.24    0.10   Head
TP_000036 1003.67    0.10   Head
TP_000037  980.34    0.10   Head
TP_000038 1020.06    0.10   Head
TP_000039  983.60    0.10   Head
TP_000040 1023.21    0.10   Head
TP_000041 1028.96    0.10   Head
TP_000042 1020.42    0.10   Head
TP_000043 1028.98    0.10   Head
TP_000044 1029.91    0.10   Head
TP_000045 1029.69    0.10   Head
TP_000046 1005.90    0.10   Head
TP_000047 1025.11    0.10   Head
TP_000048 1080.00    0.10   Head
TP_000049 1001.90    0.10   Head
TP_000050 1018.39    0.10   Head
TP_000051 1002.29    0.10   Head
TP_000052 1030.36    0.10   Head
TP_000053 1013.98    0.10   Head
TP_000054 1081.79    0.10   Head
TP_000055 1042.97    0.10   Head
TP_000056 1092.18    0.10   Head
TP_000057 1029.98    0.10   Head
TP_000058 1118.70    0.10   Head
TP_000059 1090.45    0.10   Head
TP_000060 1079.97    0.10   Head
TP_000061 1143.10    0.10   Head
TP_000062 1129.01    0.10   Head
TP_000063 1090.54    0.10   Head
TP_000064 1090.36    0.10   Head
TP_000065 1061.62    0.10   Head
TP_000066 1090.36    0.10   Head
TP_000067 1086.83    0.10   Head
TP_000068 1110.78    0.10   Head
TP_000069 1140.41    0.10   Head
TP_000070 1090.50    0.10   Head
TP_000071 1115.17    0.10   Head
TP_000072 1112.30    0.10   Head
TP_000073 1119.11    0.10   Head
TP_000074 1098.90    0.10   Head
TP_000075 1090.12    0.10   Head
TP_000076 1105.13    0.10   Head
TP_000077 1130.30    0.10   Head
TP_000078 1131.29    0.10   Head
TP_000079 1127.39    0.10   Head
TP_000080 1120.42    0.10   Head
TP_000081 1137.96    0.10   Head
TP_000082 1144.08    0.10   Head
TP_000083 1123.10    0.10   Head
TP_000084 1091.36    0.10   Head
TP_000085 1131.41    0.10   Head
TP_000086 1116.33    0.10   Head
TP_000087 1130.34    0.10   Head
TP_000088 1123.09    0.10   Head
TP_000089 1130.30    0.10   Head
TP_000090 1126.89    0.10   Head
TP_000091 1125.83    0.10   Head
TP_000092 1118.63    0.10   Head
TP_000093 1140.02    0.10   Head
TP_000094 1107.65    0.10   Head
TP_000095 1123.93    0.10   Head
TP_000096 1168.78    0.10   Head
TP_000097 1159.37    0.10   Head
TP_000098 1170.28    0.10   Head
TP_000099 1092.28    0.10   Head
TP_000100 1103.52    0.10   Head
TP_000101 1157.29    0.10   Head
TP_000102 1120.86    0.10   Head
TP_000103 1099.29    0.10   Head
TP_000104 1108.23    0.10   Head
TP_000105 1103.60    0.10   Head
TP_000106 1114.48    0.10   Head
TP_000107 1104.92    0.10   Head
TP_000108 1110.29    0.10   Head
TP_000109 1087.78    0.10   Head
TP_000110 1097.28    0.10   Head
TP_000111 1101.44    0.10   Head
TP_000112 1110.29    0.10   Head
TP_000113 1105.87    0.10   Head
TP_000114 1110.05    0.10   Head
TP_000115 1098.65    0.10   Head
TP_000116 1119.98    0.10   Head
TP_000117 1090.81    0.10   Head
TP_000118 1093.43    0.10   Head
TP_000119 1091.71    0.10   Head
TP_000120 1082.50    0.10   Head
TP_000121 1112.65    0.10   Head
TP_000122 1121.11    0.10   Head
TP_000123 1091.54    0.10   Head
TP_000124 1078.37    0.10   Head
TP_000125 1082.44    0.10   Head
TP_000126 1130.26    0.10   Head
TP_000127 1109.07    0.10   Head
TP_000128 1104.05    0.10   Head
TP_000129 1100.20    0.10   Head
TP_000130 1110.23    0.10   Head
TP_000131 1172.47    0.10   Head
TP_000132 1095.59    0.10   Head
TP_000133 1078.89    0.10   Head
TP_000134 1102.61    0.10   Head
TP_000135 1100.75    0.10   Head
TP_000136 1100.20    0.10   Head
TP_000137 1143.31    0.10   Head
TP_000138 1098.60    0.10   Head
TP_000139 1129.93    0.10   Head
TP_000140 1099.63    0.10   Head
TP_000141 1201.69    0.10   Head
TP_000142 1201.71    0.10   Head
TP_000143 1046.75    0.10   Head
TP_000144 1187.41    0.10   Head
TP_000145 1161.00    0.10   Head
TP_000146 1041.71    0.10   Head
TP_000147 1052.17    0.10   Head
TP_000148 1024.72    0.10   Head
TP_000149 1030.92    0.10   Head
TP_000150 1097.31    0.10   Head
TP_000151 1179.63    0.10   Head
TP_000152 1112.41    0.10   Head
TP_000153 1040.08    0.10   Head
TP_000154 1023.52    0.10   Head
TP_000155 1079.80    0.10   Head
TP_000156 1089.65    0.10   Head
TP_000157 1092.57    0.10   Head
TP_000158 1025.29    0.10   Head
TP_000159 1040.43    0.10   Head
TP_000160 1148.91    0.10   Head
TP_000161 1101.83    0.10   Head
TP_000162 1169.18    0.10   Head
TP_000163 1067.18    0.10   Head
TP_000164 1131.26    0.10   Head
TP_000165 1069.47    0.10   Head
TP_000166 1026.11    0.10   Head
TP_000167 1079.87    0.10   Head
TP_000168 1045.05    0.10   Head
TP_000169 1040.51    0.10   Head
TP_000170 1098.77    0.10   Head
TP_000171 1050.39    0.10   Head
TP_000172 1033.78    0.10   Head
TP_000173 1049.69    0.10   Head
TP_000174 1045.04    0.10   Head
TP_000175 1050.32    0.10   Head
TP_000176 1139.26    0.10   Head
TP_000177 1129.69    0.10   Head
TP_000178 1176.56    0.10   Head
TP_000179 1241.85    0.10   Head
TP_000180 1059.20    0.10   Head
TP_000181 1090.16    0.10   Head
TP_000182 1088.86    0.10   Head
TP_000183 1029.24    0.10   Head
TP_000184 1089.86    0.10   Head
TP_000185 1068.72    0.10   Head
TP_000186 1066.57    0.10   Head
TP_000187 1073.56    0.10   Head
TP_000188 1086.73    0.10   Head
TP_000189 1145.39    0.10   Head
TP_000190 1087.53    0.10   Head
TP_000191 1070.33    0.10   Head
TP_000192 1079.65    0.10   Head
TP_000193 1078.41    0.10   Head
TP_000194 1069.99    0.10   Head
TP_000195 1075.16    0.10   Head
TP_000196 1067.67    0.10   Head
TP_000197 1069.61    0.10   Head
TP_000198 1070.27    0.10   Head
TP_000199 1140.44    0.10   Head
TP_000200 1140.21    0.10   Head
TP_000201 1074.29    0.10   Head
TP_000202 1097.44    0.10   Head
TP_000203 1128.17    0.10   Head
TP_000204 1117.07    0.10   Head
TP_000205 1104.80    0.10   Head
TP_000206 1085.45    0.10   Head
TP_000207 1072.68    0.10   Head
TP_000208 1074.91    0.10   Head
TP_000209 1085.54    0.10   Head
TP_000210 1081.60    0.10   Head
TP_000211 1106.63    0.10   Head
TP_000212 1105.60    0.10   Head
TP_000213 1097.30    0.10   Head
TP_000214 1088.93    0.10   Head
TP_000215 1071.14    0.10   Head
TP_000216 1097.60    0.10   Head
TP_000217 1101.63    0.10   Head
TP_000218 1117.00    0.10   Head
TP_000219 1131.00    0.10   Head
TP_000220 1200.00    0.10   Head
TP_000221 1151.00    0.10   Head
TP_000222 1051.00    0.10   Head
TP_000223 1140.00    0.10   Head
TP_000224 1133.00    0.10   Head
TP_000225 1032.00    0.10   Head
TP_000226 1030.00    0.10   Head
TP_000227 1101.00    0.10   Head
TP_000228 1130.00    0.10   Head
TP_000229 1042.00    0.10   Head
TP_000230 1121.00    0.10   Head
TP_000231 1130.00    0.10   Head
TP_000232 1010.00    0.10   Head
TP_000233 1131.00    0.10   Head
TP_000234 1115.00    0.10   Head
TP_000235 1041.00    0.10   Head
TP_000236 1105.00    0.10   Head
TP_000237 1105.00    0.10   Head
TP_000238 1105.00    0.10   Head
TP_000239  971.00    0.10   Head
TP_000240 1190.00    0.10   Head
TP_000241 1002.00    0.10   Head
TP_000242 1108.00    0.10   Head
TP_000243 1126.00    0.10   Head
TP_000244 1133.00    0.10   Head
TP_000245  958.00    0.10   Head
TP_000246 1076.00    0.10   Head
TP_000247 1055.00    0.10   Head
TP_000248 1125.00    0.10   Head
TP_000249 1032.00    0.10   Head
TP_000250 1100.00    0.10   Head
TP_000251 1062.00    0.10   Head
TP_000252 1113.00    0.10   Head
TP_000253 1132.00    0.10   Head
TP_000254 1146.00    0.10   Head
TP_000255 1213.00    0.10   Head
TP_000256  993.00    0.10   Head
TP_000257 1085.00    0.10   Head
TP_000258 1161.00    0.10   Head
TP_000259 1021.00    0.10   Head
TP_000260  960.00    0.10   Head
TP_000261 1120.00    0.10   Head
TP_000262 1128.00    0.10   Head
TP_000263 1143.00    0.10   Head
TP_000264 1180.00    0.10   Head
TP_000265 1083.00    0.10   Head
TP_000266 1148.00    0.10   Head
TP_000267  980.00    0.10   Head
TP_000268 1108.00    0.10   Head
TP_000269 1045.00    0.10   Head
TP_000270 1187.00    0.10   Head
TP_000271 1081.00    0.10   Head
TP_000272 1097.00    0.10   Head
TP_000273 1045.00    0.10   Head
TP_000274 1038.00    0.10   Head
TP_000275 1111.00    0.10   Head
TP_000276 1105.00    0.10   Head
TP_000277 1110.00    0.10   Head
TP_000278 1102.00    0.10   Head
TP_000279 1077.00    0.10   Head
TP_000280 1082.00    0.10   Head
TP_000281  978.00    0.10   Head
TP_000282 1170.00    0.10   Head
TP_000283 1151.00    0.10   Head
TP_000284 1131.00    0.10   Head
TP_000285 1004.00    0.10   Head
TP_000286 1147.00    0.10   Head
TP_000287 1018.00    0.10   Head
TP_000288 1121.00    0.10   Head
TP_000289 1084.00    0.10   Head
TP_000290 1012.00    0.10   Head
TP_000291 1142.00    0.10   Head
TP_000292 1127.00    0.10   Head
TP_000293 1122.00    0.10   Head
TP_000294 1147.00    0.10   Head
TP_000295 1151.00    0.10   Head
TP_000296 1132.00    0.10   Head
TP_000297 1151.00    0.10   Head
TP_000298  992.00    0.10   Head
TP_000299 1111.00    0.10   Head
TP_000300 1074.00    0.10   Head
TP_000301 1138.00    0.10   Head
TP_000302 1003.00    0.10   Head
TP_000303  985.00    0.10   Head
TP_000304 1078.00    0.10   Head
TP_000305 1269.00    0.10   Head
TP_000306  982.00    0.10   Head
TP_000307 1123.00    0.10   Head
TP_000308 1127.00    0.10   Head
TP_000309  983.00    0.10   Head
TP_000310 1092.00    0.10   Head
TP_000311 1070.00    0.10   Head
TP_000312 1060.00    0.10   Head
TP_000313 1131.00    0.10   Head
TP_000314 1152.00    0.10   Head
TP_000315 1091.00    0.10   Head
TP_000316 1135.00    0.10   Head
TP_000317 1125.00    0.10   Head
TP_000318 1130.00    0.10   Head
TP_000319 1005.00    0.10   Head
TP_000320 1017.00    0.10   Head
TP_000321 1018.00    0.10   Head
TP_000322 1125.00    0.10   Head
TP_000323 1140.00    0.10   Head
TP_000324 1178.00    0.10   Head
TP_000325  964.00    0.10   Head
TP_000326 1220.00    0.10   Head
TP_000327 1070.00    0.10   Head
TP_000328  998.00    0.10   Head
TP_000329  981.00    0.10   Head
TP_000330 1102.00    0.10   Head
TP_000331 1130.00    0.10   Head
TP_000332 1098.00    0.10   Head
TP_000333 1052.00    0.10   Head
TP_000334 1063.00    0.10   Head
TP_000335 1128.00    0.10   Head
TP_000336 1085.00    0.10   Head
TP_000337 1095.00    0.10   Head
TP_000338  992.00    0.10   Head
TP_000339 1152.00    0.10   Head
TP_000340 1005.00    0.10   Head
TP_000341 1032.00    0.10   Head
TP_000342 1111.00    0.10   Head
TP_000343 1004.00    0.10   Head
TP_000344 1122.00    0.10   Head
TP_000345 1119.00    0.10   Head
TP_000346 1105.00    0.10   Head
TP_000347 1112.00    0.10   Head
TP_000348 1018.00    0.10   Head
TP_000349 1095.00    0.10   Head
TP_000350 1189.00    0.10   Head
TP_000351 1028.00    0.10   Head
TP_000352  978.00    0.10   Head
TP_000353 1005.00    0.10   Head
TP_000354 1113.00    0.10   Head
TP_000355 1115.00    0.10   Head
TP_000356 1105.00    0.10   Head
TP_000357 1152.00    0.10   Head
TP_000358  994.00    0.10   Head
TP_000359 1121.00    0.10   Head
TP_000360 1095.00    0.10   Head
TP_000361 1057.00    0.10   Head
TP_000362 1142.00    0.10   Head
TP_000363 1132.00    0.10   Head
TP_000364 1113.00    0.10   Head
TP_000365 1065.00    0.10   Head
TP_000366  952.00    0.10   Head
TP_000367 1130.00    0.10   Head
TP_000368 1090.00    0.10   Head
TP_000369 1172.00    0.10   Head
TP_000370 1125.00    0.10   Head
TP_000371 1026.00    0.10   Head
TP_000372 1022.00    0.10   Head
TP_000373 1172.00    0.10   Head
TP_000374 1135.00    0.10   Head
TP_000375 1112.00    0.10   Head
TP_000376 1062.00    0.10   Head
TP_000377 1118.00    0.10   Head
TP_000378  977.00    0.10   Head
TP_000379 1159.00    0.10   Head
TP_000380 1003.00    0.10   Head
TP_000381 1043.00    0.10   Head
TP_000382 1151.00    0.10   Head
TP_000383 1121.00    0.10   Head
TP_000384 1229.00    0.10   Head
TP_000385 1015.00    0.10   Head
TP_000386 1028.00    0.10   Head
TP_000387 1098.00    0.10   Head
TP_000388 1128.00    0.10   Head
TP_000389  994.00    0.10   Head
TP_000390 1095.00    0.10   Head
TP_000391 1051.00    0.10   Head
TP_000392 1035.00    0.10   Head
TP_000393  983.00    0.10   Head
TP_000394 1131.00    0.10   Head
TP_000395 1220.00    0.10   Head
TP_000396 1120.00    0.10   Head
TP_000397 1131.00    0.10   Head
TP_000398 1162.00    0.10   Head
TP_000399 1091.00    0.10   Head
TP_000400 1211.00    0.10   Head
TP_000401 1168.00    0.10   Head
TP_000402 1152.00    0.10   Head
TP_000403 1045.00    0.10   Head
TP_000404 1125.00    0.10   Head
TP_000405  985.00    0.10   Head
TP_000406 1012.00    0.10   Head
TP_000407 1193.00    0.10   Head
TP_000408 1088.00    0.10   Head
TP_000409 1071.00    0.10   Head
TP_000410 1019.00    0.10   Head
TP_000411 1014.00    0.10   Head
TP_000412 1190.00    0.10   Head
TP_000413 1069.00    0.10   Head
TP_000414 1035.00    0.10   Head
TP_000415 1136.00    0.10   Head
TP_000416 1148.00    0.10   Head
TP_000417  980.00    0.10   Head
TP_000418 1097.00    0.10   Head
TP_000419 1037.00    0.10   Head
TP_000420 1169.00    0.10   Head
TP_000421 1162.00    0.10   Head
TP_000422 1019.00    0.10   Head
TP_000423 1240.00    0.10   Head
TP_000424 1128.00    0.10   Head
TP_000425 1142.00    0.10   Head
TP_000426 1108.00    0.10   Head
TP_000427 1125.00    0.10   Head
TP_000428 1147.00    0.10   Head
TP_000429 1078.00    0.10   Head
TP_000430  972.00    0.10   Head
TP_000431 1081.00    0.10   Head
TP_000432 1110.00    0.10   Head
TP_000433 1012.00    0.10   Head
TP_000434 1022.00    0.10   Head
TP_000435 1080.00    0.10   Head
TP_000436 1131.00    0.10   Head
TP_000437 1087.00    0.10   Head
TP_000438 1004.00    0.10   Head
TP_000439 1121.00    0.10   Head
TP_000440  993.00    0.10   Head
TP_000441 1060.00    0.10   Head
TP_000442  988.00    0.10   Head
TP_000443 1090.00    0.10   Head
TP_000444 1068.00    0.10   Head
TP_000445 1090.00    0.10   Head
TP_000446 1034.00    0.10   Head
TP_000447 1020.00    0.10   Head
TP_000448 1025.00    0.10   Head
TP_000449 1052.00    0.10   Head
TP_000450 1032.00    0.10   Head
TP_000451 1122.00    0.10   Head
TP_000452  911.00    0.10   Head
TP_000453 1067.00    0.10   Head
TP_000454 1105.00    0.10   Head
TP_000455 1251.00    0.10   Head
TP_000456 1098.00    0.10   Head
TP_000457 1121.00    0.10   Head
TP_000458 1053.00    0.10   Head
TP_000459 1078.00    0.10   Head
TP_000460  998.00    0.10   Head
TP_000461 1095.00    0.10   Head
TP_000462 1030.00    0.10   Head
TP_000463 1045.00    0.10   Head
TP_000464 1081.00    0.10   Head
TP_000465 1095.00    0.10   Head
TP_000466 1044.00    0.10   Head
TP_000467 1162.00    0.10   Head
TP_000468 1055.00    0.10   Head
TP_000469 1143.00    0.10   Head
TP_000470 1131.00    0.10   Head
TP_000471 1044.00    0.10   Head
TP_000472  969.00    0.10   Head
TP_000473 1132.00    0.10   Head
TP_000474 1003.00    0.10   Head
TP_000475 1185.00    0.10   Head
TP_000476 1045.00    0.10   Head
TP_000477 1055.00    0.10   Head
TP_000478 1013.00    0.10   Head
TP_000479 1160.00    0.10   Head
TP_000480 1108.00    0.10   Head
TP_000481 1129.00    0.10   Head
TP_000482 1141.00    0.10   Head
TP_000483 1134.00    0.10   Head
TP_000484 1189.00    0.10   Head
TP_000485 1152.00    0.10   Head
TP_000486 1009.00    0.10   Head
TP_000487 1089.00    0.10   Head
TP_000488 1211.00    0.10   Head
TP_000489 1190.00    0.10   Head
TP_000490 1061.00    0.10   Head
TP_000491 1004.00    0.10   Head
TP_000492 1044.00    0.10   Head
TP_000493 1044.00    0.10   Head
TP_000494 1090.00    0.10   Head
TP_000495 1087.00    0.10   Head
TP_000496 1073.00    0.10   Head
TP_000497 1153.00    0.10   Head
TP_000498 1013.00    0.10   Head
TP_000499 1126.00    0.10   Head
TP_000500 1150.00    0.10   Head
TP_000501 1143.00    0.10   Head
TP_000502 1101.00    0.10   Head
TP_000503 1048.00    0.10   Head
TP_000504 1132.00    0.10   Head
TP_000505 1014.00    0.10   Head
TP_000506 1032.00    0.10   Head
TP_000507  980.00    0.10   Head
TP_000508 1070.00    0.10   Head
TP_000509 1088.00    0.10   Head
TP_000510 1152.00    0.10   Head
TP_000511 1070.00    0.10   Head
TP_000512 1139.00    0.10   Head
TP_000513 1090.00    0.10   Head
TP_000514 1154.00    0.10   Head
TP_000515 1127.00    0.10   Head
TP_000516 1068.00    0.10   Head
TP_000517 1129.00    0.10   Head
TP_000518 1032.00    0.10   Head
TP_000519 1010.00    0.10   Head
TP_000520  975.00    0.10   Head
TP_000521  971.00    0.10   Head
TP_000522 1102.00    0.10   Head
TP_000523 1123.00    0.10   Head
TP_000524 1190.00    0.10   Head
TP_000525 1124.00    0.10   Head
TP_000526 1142.00    0.10   Head
TP_000527 1111.00    0.10   Head
TP_000528 1121.00    0.10   Head
TP_000529 1102.00    0.10   Head
TP_000530 1131.00    0.10   Head
TP_000531 1092.00    0.10   Head
TP_000532 1081.00    0.10   Head
TP_000533 1123.00    0.10   Head
TP_000534 1111.00    0.10   Head
TP_000535 1032.00    0.10   Head
TP_000536 1203.00    0.10   Head
TP_000537 1092.00    0.10   Head
TP_000538 1091.00    0.10   Head
TP_000539 1085.00    0.10   Head
TP_000540 1142.00    0.10   Head
TP_000541 1140.00    0.10   Head
TP_000542 1141.00    0.10   Head
TP_000543 1104.00    0.10   Head
TP_000544 1104.00    0.10   Head
TP_000545 1124.00    0.10   Head
TP_000546 1141.00    0.10   Head
TP_000547 1076.00    0.10   Head
TP_000548  989.00    0.10   Head
TP_000549 1098.00    0.10   Head
TP_000550 1190.00    0.10   Head
TP_000551 1122.00    0.10   Head
TP_000552 1112.00    0.10   Head
TP_000553 1080.00    0.10   Head
TP_000554 1049.00    0.10   Head
TP_000555 1108.00    0.10   Head
TP_000556 1095.00    0.10   Head
TP_000557 1045.00    0.10   Head
TP_000558 1144.00    0.10   Head
TP_000559 1044.00    0.10   Head
TP_000560 1118.00    0.10   Head
TP_000561 1015.00    0.10   Head
TP_000562 1131.00    0.10   Head
TP_000563 1198.00    0.10   Head
TP_000564 1104.00    0.10   Head
TP_000565 1145.00    0.10   Head
TP_000566 1061.00    0.10   Head
TP_000567  990.00    0.10   Head
TP_000568 1000.00    0.10   Head
TP_000569 1115.00    0.10   Head
TP_000570 1238.00    0.10   Head
TP_000571 1130.00    0.10   Head
TP_000572 1018.00    0.10   Head
TP_000573 1121.00    0.10   Head
TP_000574 1123.00    0.10   Head
TP_000575 1152.00    0.10   Head
TP_000576 1103.00    0.10   Head
TP_000577 1103.00    0.10   Head
TP_000578 1130.00    0.10   Head
TP_000579 1075.00    0.10   Head
TP_000580 1014.00    0.10   Head
TP_000581  988.00    0.10   Head
TP_000582 1029.00    0.10   Head
TP_000583 1090.00    0.10   Head
TP_000584  993.00    0.10   Head
TP_000585 1128.00    0.10   Head
TP_000586  982.00    0.10   Head
TP_000587 1046.00    0.10   Head
TP_000588 1055.00    0.10   Head
TP_000589 1096.00    0.10   Head
TP_000590 1083.00    0.10   Head
TP_000591 1066.00    0.10   Head
TP_000592 1112.00    0.10   Head
TP_000593 1105.00    0.10   Head
TP_000594  976.00    0.10   Head
TP_000595  992.00    0.10   Head
TP_000596 1128.00    0.10   Head
TP_000597 1173.00    0.10   Head
TP_000598 1098.00    0.10   Head
TP_000599 1022.00    0.10   Head
TP_000600  963.00    0.10   Head
TP_000601 1149.00    0.10   Head
TP_000602 1090.00    0.10   Head
TP_000603 1092.00    0.10   Head
TP_000604 1080.00    0.10   Head
TP_000605 1088.00    0.10   Head
TP_000606 1090.00    0.10   Head
TP_000607 1089.00    0.10   Head
TP_000608 1068.00    0.10   Head
TP_000609 1122.00    0.10   Head
TP_000610 1095.00    0.10   Head
TP_000611 1002.00    0.10   Head
TP_000612 1105.00    0.10   Head
TP_000613 1089.00    0.10   Head
TP_000614 1052.00    0.10   Head
TP_000615 1093.00    0.10   Head
TP_000616 1141.00    0.10   Head
TP_000617 1100.00    0.10   Head
TP_000618 1140.00    0.10   Head
TP_000619 1122.00    0.10   Head
TP_000620 1110.00    0.10   Head
TP_000621 1041.00    0.10   Head
TP_000622 1049.00    0.10   Head
TP_000623 1107.00    0.10   Head
TP_000624 1108.00    0.10   Head
TP_000625 1107.00    0.10   Head
TP_000626 1108.00    0.10   Head
TP_000627 1043.00    0.10   Head
TP_000628 1123.00    0.10   Head
TP_000629 1072.00    0.10   Head
TP_000630 1088.00    0.10   Head
TP_000631 1111.00    0.10   Head
TP_000632 1098.00    0.10   Head
TP_000633 1041.00    0.10   Head
TP_000634 1041.00    0.10   Head
TP_000635 1118.00    0.10   Head
TP_000636 1071.00    0.10   Head
TP_000637 1112.00    0.10   Head
TP_000638 1067.00    0.10   Head
TP_000639 1029.00    0.10   Head
TP_000640 1068.00    0.10   Head
TP_000641 1089.00    0.10   Head
TP_000642 1201.00    0.10   Head
TP_000643  952.00    0.10   Head
TP_000644 1092.00    0.10   Head
TP_000645 1168.00    0.10   Head
TP_000646 1165.00    0.10   Head
TP_000647 1165.00    0.10   Head
TP_000648 1082.00    0.10   Head
TP_000649 1108.00    0.10   Head
TP_000650 1043.00    0.10   Head
TP_000651 1032.00    0.10   Head
TP_000652 1135.00    0.10   Head
TP_000653 1159.00    0.10   Head
TP_000654 1098.00    0.10   Head
TP_000655 1119.00    0.10   Head
TP_000656 1090.00    0.10   Head
TP_000657 1120.00    0.10   Head
TP_000658 1090.00    0.10   Head
TP_000659 1084.00    0.10   Head
TP_000660 1062.00    0.10   Head
TP_000661 1145.00    0.10   Head
TP_000662 1152.00    0.10   Head
TP_000663 1082.00    0.10   Head
TP_000664 1152.00    0.10   Head
TP_000665 1092.00    0.10   Head
TP_000666 1040.00    0.10   Head
TP_000667 1018.00    0.10   Head
TP_000668 1118.00    0.10   Head
TP_000669 1104.00    0.10   Head
TP_000670 1094.00    0.10   Head
TP_000671 1110.00    0.10   Head
TP_000672 1041.00    0.10   Head
TP_000673 1086.00    0.10   Head
TP_000674 1132.00    0.10   Head
TP_000675 1099.00    0.10   Head
TP_000676 1122.00    0.10   Head
TP_000677 1131.00    0.10   Head
TP_000678 1180.00    0.10   Head
TP_000679  979.00    0.10   Head
TP_000680 1128.00    0.10   Head
TP_000681  994.00    0.10   Head
TP_000682 1069.00    0.10   Head
TP_000683 1081.00    0.10   Head
TP_000684 1109.00    0.10   Head
TP_000685 1091.00    0.10   Head
TP_000686 1026.00    0.10   Head
TP_000687 1034.00    0.10   Head
TP_000688 1034.00    0.10   Head
TP_000689 1012.00    0.10   Head
TP_000690 1021.00    0.10   Head
TP_000691 1033.00    0.10   Head
TP_000692 1033.00    0.10   Head
TP_000693 1033.00    0.10   Head
TP_000694 1090.00    0.10   Head
TP_000695 1068.00    0.10   Head
TP_000696 1001.00    0.10   Head
TP_000697 1132.00    0.10   Head
TP_000698 1105.00    0.10   Head
TP_000699 1102.00    0.10   Head
TP_000700 1014.00    0.10   Head
TP_000701 1050.00    0.10   Head
TP_000702 1080.00    0.10   Head
TP_000703 1130.00    0.10   Head
TP_000704 1080.00    0.10   Head
TP_000705 1102.00    0.10   Head
TP_000706 1090.00    0.10   Head
TP_000707 1033.00    0.10   Head
TP_000708 1051.00    0.10   Head
TP_000709 1101.00    0.10   Head
TP_000710 1101.00    0.10   Head
TP_000711 1232.00    0.10   Head
TP_000712 1105.00    0.10   Head
TP_000713 1100.00    0.10   Head
TP_000714 1058.00    0.10   Head
TP_000715 1094.00    0.10   Head
TP_000716 1065.00    0.10   Head
TP_000717 1112.00    0.10   Head
TP_000718 1020.00    0.10   Head
TP_000719 1082.00    0.10   Head
TP_000720 1128.00    0.10   Head
TP_000721 1059.00    0.10   Head
TP_000722 1110.00    0.10   Head
TP_000723 1128.00    0.10   Head
TP_000724  998.00    0.10   Head
TP_000725  977.00    0.10   Head
TP_000726 1005.00    0.10   Head
TP_000727 1189.00    0.10   Head
TP_000728 1154.00    0.10   Head
TP_000729 1120.00    0.10   Head
TP_000730 1038.00    0.10   Head
TP_000731 1076.00    0.10   Head
TP_000732 1081.00    0.10   Head
TP_000733 1054.00    0.10   Head
TP_000734  981.00    0.10   Head
TP_000735 1100.00    0.10   Head
TP_000736 1160.00    0.10   Head
TP_000737 1100.00    0.10   Head
TP_000738 1153.00    0.10   Head
TP_000739 1082.00    0.10   Head
TP_000740 1133.00    0.10   Head
TP_000741 1090.00    0.10   Head
TP_000742 1089.00    0.10   Head
TP_000743 1010.00    0.10   Head
TP_000744 1068.00    0.10   Head
TP_000745 1110.00    0.10   Head
TP_000746 1118.00    0.10   Head
TP_000747 1085.00    0.10   Head
TP_000748 1123.00    0.10   Head
TP_000749 1100.00    0.10   Head
TP_000750 1098.00    0.10   Head
TP_000751 1142.00    0.10   Head
TP_000752 1153.00    0.10   Head
TP_000753 1141.00    0.10   Head
TP_000754 1053.00    0.10   Head
TP_000755 1110.00    0.10   Head
TP_000756 1102.00    0.10   Head
TP_000757 1135.00    0.10   Head
TP_000758 1152.00    0.10   Head
TP_000759 1101.00    0.10   Head
TP_000760 1060.00    0.10   Head
TP_000761 1037.00    0.10   Head
TP_000762 1033.00    0.10   Head
TP_000763 1094.00    0.10   Head
TP_000764 1126.00    0.10   Head
TP_000765 1116.00    0.10   Head
TP_000766 1012.00    0.10   Head
TP_000767 1310.00    0.10   Head
TP_000768 1130.00    0.10   Head
TP_000769 1108.00    0.10   Head
TP_000770 1141.00    0.10   Head
TP_000771 1108.00    0.10   Head
TP_000772 1120.00    0.10   Head
TP_000773 1042.00    0.10   Head
TP_000774 1121.00    0.10   Head
TP_000775 1258.00    0.10   Head
TP_000776 1101.00    0.10   Head
TP_000777 1109.00    0.10   Head
TP_000778 1171.00    0.10   Head
TP_000779 1165.00    0.10   Head
TP_000780 1091.00    0.10   Head
TP_000781 1171.00    0.10   Head
TP_000782 1012.00    0.10   Head
TP_000783 1034.00    0.10   Head
TP_000784 1171.00    0.10   Head
TP_000785 1090.00    0.10   Head
TP_000786 1244.00    0.10   Head
TP_000787 1031.00    0.10   Head
TP_000788 1019.00    0.10   Head
TP_000789 1117.00    0.10   Head
TP_000790 1141.00    0.10   Head
TP_000791 1110.00    0.10   Head
TP_000792 1105.00    0.10   Head
TP_000793 1102.00    0.10   Head
TP_000794 1130.00    0.10   Head
TP_000795 1065.00    0.10   Head
TP_000796 1138.00    0.10   Head
TP_000797 1122.00    0.10   Head
TP_000798 1082.00    0.10   Head
TP_000799 1120.00    0.10   Head
TP_000800 1162.00    0.10   Head
TP_000801 1126.00    0.10   Head
TP_000802 1102.00    0.10   Head
TP_000803 1165.00    0.10   Head
TP_000804 1115.00    0.10   Head
TP_000805  963.00    0.10   Head
TP_000806  993.00    0.10   Head
TP_000807 1112.00    0.10   Head
TP_000808 1112.00    0.10   Head
TP_000809 1090.00    0.10   Head
TP_000810 1156.00    0.10   Head
TP_000811 1074.00    0.10   Head
TP_000812 1099.00    0.10   Head
TP_000813  982.00    0.10   Head
TP_000814  980.00    0.10   Head
TP_000815 1090.00    0.10   Head
TP_000816 1098.00    0.10   Head
TP_000817 1102.00    0.10   Head
TP_000818  992.00    0.10   Head
TP_000819 1053.00    0.10   Head
TP_000820 1130.00    0.10   Head
TP_000821 1130.00    0.10   Head
TP_000822 1141.00    0.10   Head
TP_000823 1075.00    0.10   Head
TP_000824 1030.00    0.10   Head
TP_000825 1131.00    0.10   Head
TP_000826 1121.00    0.10   Head
TP_000827 1093.00    0.10   Head
TP_000828 1195.00    0.10   Head
TP_000829 1112.00    0.10   Head
TP_000830 1214.00    0.10   Head
TP_000831 1111.00    0.10   Head
TP_000832  963.00    0.10   Head
TP_000833 1112.00    0.10   Head
TP_000834 1109.00    0.10   Head