pcf
* control data
restart  estimation
136   872     31     0     16
1    2    single    point    1    0    0
 20    -3.0    0.30    0.03    -7    999 lamforgive 
3.0  3.0   0.001
0.1
0   .005  4   4  .005   4
 1    1    1  REISAVEITN PARSAVEITN
* singular value decomposition
1
79  5.0E-7
0
* parameter groups
k	     relative    0.01     0.000      switch      2.000      parabolic
bio	     relative    0.01     0.000      switch      2.000      parabolic
demeth	     absolute    0.01     0.000      switch      2.000      parabolic
diff	     relative    0.01     0.000      switch      2.000      parabolic
ke	     relative    0.01     0.000      switch      2.000      parabolic
lendiff	     relative    0.01     0.000      switch      2.000      parabolic
mtc	     relative    0.01     0.000      switch      2.000      parabolic
q10	     relative    0.01     0.000      switch      2.000      parabolic
r_	     relative    0.01     0.000      switch      2.000      parabolic
tbase	     relative    0.01     0.000      switch      2.000      parabolic
density	     relative    0.01     0.000      switch      2.000      parabolic
par	     relative    0.01     0.000      switch      2.000      parabolic
vsettle	     relative    0.01     0.000      switch      2.000      parabolic
kso4	     relative    0.01     0.000      switch      2.000      parabolic
kso5	     relative    0.01     0.000      switch      2.000      parabolic
kso6	     relative    0.01     0.000      switch      2.000      parabolic
kso7	     relative    0.01     0.000      switch      2.000      parabolic
kso8	     relative    0.01     0.000      switch      2.000      parabolic
kso9	     relative    0.01     0.000      switch      2.000      parabolic
uso4	     relative    0.01     0.000      switch      2.000      parabolic
uso5	     relative    0.01     0.000      switch      2.000      parabolic
uso6	     relative    0.01     0.000      switch      2.000      parabolic
uso7	     relative    0.01     0.000      switch      2.000      parabolic
uso8	     relative    0.01     0.000      switch      2.000      parabolic
uso9	     relative    0.01     0.000      switch      2.000      parabolic
mole	     relative    0.01     0.000      switch      2.000      parabolic
xoh	     relative    0.01     0.000      switch      2.000      parabolic
cfrac	     relative    0.01     0.000      switch      2.000      parabolic
interfrac    relative    0.01     0.000      switch      2.000      parabolic
k_rs	     relative    0.01     0.000      switch      2.000      parabolic
k_xo	     relative    0.01     0.000      switch      2.000      parabolic
* parameter data
k_adsorp         log         factor           0.005       0.0005        0.05       k                1.0     0.0       1
k_desorp         log         factor          0.0001      0.00001       0.001       k                1.0     0.0       1
k_oxid_1         log         factor      2.1969E-05  2.19686E-06 0.000219686       k                1.0     0.0       1
k_oxid_2         log         factor        0.431372    0.0431372     4.31372       k               -1.0     0.0       1
k_oxid_3         log         factor       4.1308153   0.41308153   41.308153       k                1.0     0.0       1
BioDeMethHI      log         factor               2          0.2          20       bio              1.0     0.0       1
BioDemethLO      log         factor             0.1         0.01           1       bio              1.0     0.0       1
DeMeth_CT        none        relative             0         -0.1         0.1       demeth           1.0     0.0       1
Diff_sed_sed     log         factor          0.0001      0.00001       0.001       diff             1.0     0.0       1
Diff_sed_wat     log         factor          0.0001      0.00001       0.001       diff             1.0     0.0       1
Diff_wat_wat     log         factor          0.0001      0.00001       0.001       diff             1.0     0.0       1
ke_PAR_1         log         factor               1          0.1          10       ke               1.0     0.0       1
ke_PAR_2         fixed       factor               0         -0.1         0.1       ke               1.0     0.0       1
ke_PAR_3         fixed       factor               0         -0.1         0.1       ke               1.0     0.0       1
ke_UVA_1         log         factor               1          0.1          10       ke               1.0     0.0       1
ke_UVA_2         fixed       factor               0         -0.1         0.1       ke               1.0     0.0       1
ke_UVA_3         fixed       factor               0         -0.1         0.1       ke               1.0     0.0       1
ke_UVB_1         log         factor               1          0.1          10       ke               1.0     0.0       1
ke_UVB_2         fixed       factor               0         -0.1         0.1       ke               1.0     0.0       1
ke_UVB_3         fixed       factor               0         -0.1         0.1       ke               1.0     0.0       1
LenDiffsed_m     fixed       factor             0.5         0.05           5       lendiff          1.0     0.0       1
LenDiffwat_m     fixed       factor               1          0.1          10       lendiff          1.0     0.0       1
MTC_Hg0Air       fixed       factor             100           10        1000       mtc              1.0     0.0       1
MTC_Hg0Wat       fixed       factor             0.5         0.05           5       mtc              1.0     0.0       1
MTCMeHgAir       log         factor             100           10        1000       mtc              1.0     0.0       1
MTCMeHgWat       log         factor             0.5         0.05           5       mtc              1.0     0.0       1
Q10CT            log         factor               2          0.2          20       q10              1.0     0.0       1
Q10CTInt         log         factor               2          0.2          20       q10              1.0     0.0       1
Q10DeMeth        log         factor            1.26        0.126        12.6       q10              1.0     0.0       1
Q10Meth          log         factor            1.26        0.126        12.6       q10              1.0     0.0       1
r_PhotoPAR       fixed       factor               0         -0.1         0.1       r_               1.0     0.0       1
r_PhotoUVA       log         factor          0.0006      0.00006       0.006       r_               1.0     0.0       1
r_PhotoUVB       fixed       factor               0         -0.1         0.1       r_               1.0     0.0       1
r_Oxid_PAR       fixed       factor               0         -0.1         0.1       r_               1.0     0.0       1
r_Oxid_UVA       log         factor            0.05        0.005         0.5       r_               1.0     0.0       1
r_Oxid_UVB       fixed       factor               0         -0.1         0.1       r_               1.0     0.0       1
r_PAR_PhotoR     fixed       factor               0         -0.1         0.1       r_               1.0     0.0       1
r_UVA_PhotoR     log         factor          300000        30000     3000000       r_               1.0     0.0       1
r_UVB_PhotoR     fixed       factor               0         -0.1         0.1       r_               1.0     0.0       1
TBaseCT          log         factor              15          1.5         150       tbase            1.0     0.0       1
TBaseCTInt       log         factor              15          1.5         150       tbase            1.0     0.0       1
TBaseDeMeth      log         factor              15          1.5         150       tbase            1.0     0.0       1
TBaseMeth        log         factor              15          1.5         150       tbase            1.0     0.0       1
density[0]       fixed       factor             1.8         0.18          18       density          1.0     0.0       1
density[1]       fixed       factor             1.8         0.18          18       density          1.0     0.0       1
density[2]       fixed       factor             1.8         0.18          18       density          1.0     0.0       1
density[3]       fixed       factor             2.3         0.23          23       density          1.0     0.0       1
PAR_threshol     fixed       factor               1          0.1          10       par              1.0     0.0       1
vsettle[0]       fixed       factor            0.35        0.035         3.5       vsettle          1.0     0.0       1
vsettle[1]       fixed       factor            0.35        0.035         3.5       vsettle          1.0     0.0       1
vsettle[2]       fixed       factor            0.35        0.035         3.5       vsettle          1.0     0.0       1
vsettle[3]       fixed       factor               1          0.1          10       vsettle          1.0     0.0       1
kSO4_0           fixed       factor               0         -0.1         0.1       kso4             1.0     0.0       1
kSO4_1           fixed       factor               0         -0.1         0.1       kso5             1.0     0.0       1
kSO4_2           fixed       factor               0         -0.1         0.1       kso6             1.0     0.0       1
kSO4_4           fixed       factor               0         -0.1         0.1       kso7             1.0     0.0       1
kSO4_3           fixed       factor               0         -0.1         0.1       kso8             1.0     0.0       1
kSO4_5           fixed       factor               0         -0.1         0.1       kso9             1.0     0.0       1
r_BioDeMet_0     log         factor            0.02        0.002         0.2       r_               1.0     0.0       1
r_BioDeMet_1     log         factor            0.02        0.002         0.2       r_               1.0     0.0       1
r_BioDeMet_2     log         factor             0.6         0.06           6       r_               1.0     0.0       1
r_BioDeMet_4     log         factor             0.6         0.06           6       r_               1.0     0.0       1
r_BioDeMet_3     log         factor            0.02        0.002         0.2       r_               1.0     0.0       1
r_BioDeMet_5     log         factor            0.02        0.002         0.2       r_               1.0     0.0       1
r_BioDeMtl_0    log         factor            0.01        0.001         0.1       r_               1.0     0.0       1
r_BioDeMtl_2    log         factor             0.6         0.06           6       r_               1.0     0.0       1
r_BioDeMtl_3    log         factor            0.01        0.001         0.1       r_               1.0     0.0       1
r_ct_labil_2     log         factor         0.00006     0.000006      0.0006       r_               1.0     0.0       1
r_ct_labil_3     fixed       factor               0         -0.1         0.1       r_               1.0     0.0       1
r_ct_refra_2     log         factor        0.000006    0.0000006     0.00006       r_               1.0     0.0       1
r_ct_refra_3     fixed       factor               0         -0.1         0.1       r_               1.0     0.0       1
r_Meth_Int_0     log         factor            0.18        0.018         1.8       r_               1.0     0.0       1
r_Meth_Int_1     log         factor            0.18        0.018         1.8       r_               1.0     0.0       1
r_Methyl_0       fixed       factor               0         -0.1         0.1       r_               1.0     0.0       1
r_Methyl_2       log         factor            0.01        0.001         0.1       r_               1.0     0.0       1
uSO4_0           fixed       factor               1          0.1          10       uso4             1.0     0.0       1
uSO4_1           fixed       factor               1          0.1          10       uso5             1.0     0.0       1
uSO4_2           fixed       factor               1          0.1          10       uso6             1.0     0.0       1
uSO4_4           fixed       factor               1          0.1          10       uso7             1.0     0.0       1
uSO4_3           fixed       factor               1          0.1          10       uso8             1.0     0.0       1
uSO4_5           fixed       factor               1          0.1          10       uso9             1.0     0.0       1
mole_RS_0        fixed       factor           5E-09        5E-10  0.00000005       mole             1.0     0.0       1
mole_RS_1        fixed       factor           5E-09        5E-10  0.00000005       mole             1.0     0.0       1
mole_RS_2        fixed       factor           5E-09        5E-10  0.00000005       mole             1.0     0.0       1
mole_RS_4        fixed       factor           5E-09        5E-10  0.00000005       mole             1.0     0.0       1
mole_RS_3        fixed       factor           5E-09        5E-10  0.00000005       mole             1.0     0.0       1
mole_RS_5        fixed       factor           5E-09        5E-10  0.00000005       mole             1.0     0.0       1
mole_XOH_0_0     log         factor         1.5E-08      1.5E-09  0.00000015       mole             1.0     0.0       1
mole_XOH_0_2     log         factor      0.00000002  0.000000002   0.0000002       mole             1.0     0.0       1
mole_XOH_1_0     log         factor      0.00000001  0.000000001   0.0000001       mole             1.0     0.0       1
mole_XOH_1_2     log         factor      0.00000002  0.000000002   0.0000002       mole             1.0     0.0       1
mole_XOH_2_0     log         factor           5E-09        5E-10  0.00000005       mole             1.0     0.0       1
mole_XOH_2_2     log         factor      0.00000001  0.000000001   0.0000001       mole             1.0     0.0       1
mole_XOH_3_0     log         factor           5E-09        5E-10  0.00000005       mole             1.0     0.0       1
mole_XOH_3_2     log         factor      0.00000001  0.000000001   0.0000001       mole             1.0     0.0       1
XOH_frac_0_0     log         factor            0.75        0.075         7.5       xoh              1.0     0.0       1
XOH_frac_0_1     log         factor            0.75        0.075         7.5       xoh              1.0     0.0       1
XOH_frac_0_2     log         factor            0.75        0.075         7.5       xoh              1.0     0.0       1
XOH_frac_0_4     log         factor            0.75        0.075         7.5       xoh              1.0     0.0       1
XOH_frac_0_3     log         factor            0.75        0.075         7.5       xoh              1.0     0.0       1
XOH_frac_0_5     log         factor            0.75        0.075         7.5       xoh              1.0     0.0       1
XOH_frac_1_0     log         factor            0.75        0.075         7.5       xoh              1.0     0.0       1
XOH_frac_1_1     log         factor            0.75        0.075         7.5       xoh              1.0     0.0       1
XOH_frac_1_2     log         factor            0.75        0.075         7.5       xoh              1.0     0.0       1
XOH_frac_1_4     log         factor            0.75        0.075         7.5       xoh              1.0     0.0       1
XOH_frac_1_3     log         factor            0.75        0.075         7.5       xoh              1.0     0.0       1
XOH_frac_1_5     log         factor            0.75        0.075         7.5       xoh              1.0     0.0       1
XOH_frac_2_0     log         factor            0.75        0.075         7.5       xoh              1.0     0.0       1
XOH_frac_2_1     log         factor            0.75        0.075         7.5       xoh              1.0     0.0       1
XOH_frac_2_2     log         factor            0.75        0.075         7.5       xoh              1.0     0.0       1
XOH_frac_2_4     log         factor            0.75        0.075         7.5       xoh              1.0     0.0       1
XOH_frac_2_3     log         factor            0.75        0.075         7.5       xoh              1.0     0.0       1
XOH_frac_2_5     log         factor            0.75        0.075         7.5       xoh              1.0     0.0       1
XOH_frac_3_0     log         factor            0.75        0.075         7.5       xoh              1.0     0.0       1
XOH_frac_3_1     log         factor            0.75        0.075         7.5       xoh              1.0     0.0       1
XOH_frac_3_2     log         factor            0.75        0.075         7.5       xoh              1.0     0.0       1
XOH_frac_3_4     log         factor            0.75        0.075         7.5       xoh              1.0     0.0       1
XOH_frac_3_3     log         factor            0.75        0.075         7.5       xoh              1.0     0.0       1
XOH_frac_3_5     log         factor            0.75        0.075         7.5       xoh              1.0     0.0       1
Cfrac_Labi_0     fixed       factor             0.4         0.04           4       cfrac            1.0     0.0       1
Cfrac_Labi_1     fixed       factor             0.5         0.05           5       cfrac            1.0     0.0       1
Cfrac_Labi_2     fixed       factor             0.2         0.02           2       cfrac            1.0     0.0       1
Cfrac_Labi_4     fixed       factor             0.2         0.02           2       cfrac            1.0     0.0       1
Cfrac_Labi_3     fixed       factor             0.2         0.02           2       cfrac            1.0     0.0       1
Cfrac_Labi_5     fixed       factor             0.2         0.02           2       cfrac            1.0     0.0       1
Cfrac_Refr_2     fixed       factor             0.2         0.02           2       cfrac            1.0     0.0       1
Inter_frac_0     log         factor             0.3         0.03           3       interfrac        1.0     0.0       1
Inter_frac_1     log         factor             0.3         0.03           3       interfrac        1.0     0.0       1
k_RS_2_Hg_0      fixed       factor              42          4.2         420       k_rs             1.0     0.0       1
k_RSH_0          fixed       factor              10            1         100       k_rs            -1.0     0.0       1
k_RSHg_0         fixed       factor              38          3.8         380       k_rs             1.0     0.0       1
k_RSMeHg_0       fixed       factor              10            1         100       k_rs             1.0     0.0       1
k_XOHg_0         log         factor            17.8         1.78         178       k_xo             1.0     0.0       1
k_XOHg_2         log         factor           17.75        1.775       177.5       k_xo             1.0     0.0       1
k_XOMeHg_0       log         factor             3.9         0.39          39       k_xo             1.0     0.0       1
k_XOMeHg_2       log         factor             3.2         0.32          32       k_xo             1.0     0.0       1
* observation groups
MeHg_e_un
MeHg_e_f
MeHg_h_un
MeHg_h_f
HgII_e_un
HgII_e_f
HgII_h_un
HgII_h_f
MeHg_pw_1_1
MeHg_pw_2_1
MeHg_sed_1_1
MeHg_sed_2_1
HgII_pw_1_1
HgII_pw_2_1
HgII_sed_1_1
HgII_sed_2_1
* observation data
MeHg_pw_1_1_0019	0.206823796	2.7450	MeHg_pw_1_1
MeHg_pw_1_1_0020	0.550785237	2.7450	MeHg_pw_1_1
MeHg_pw_1_1_0022	0.901979455	2.7450	MeHg_pw_1_1
MeHg_pw_1_1_0053	0.183913547	2.7450	MeHg_pw_1_1
MeHg_pw_1_1_0055	0.142672151	2.7450	MeHg_pw_1_1
MeHg_pw_1_1_0082	0.240662397	2.7450	MeHg_pw_1_1
MeHg_pw_1_1_0085	0.186191753	2.7450	MeHg_pw_1_1
MeHg_pw_1_1_0086	0.154802441	2.7450	MeHg_pw_1_1
MeHg_pw_1_1_0344	0.167464428	2.7450	MeHg_pw_1_1
MeHg_pw_1_1_0345	0.302192004	2.7450	MeHg_pw_1_1
MeHg_pw_1_1_0369	0.40118614	2.7450	MeHg_pw_1_1
MeHg_pw_1_1_0395	0.389375943	2.7450	MeHg_pw_1_1
MeHg_pw_1_1_0422	0.165526445	2.7450	MeHg_pw_1_1
MeHg_pw_1_1_0425	0.112525595	2.7450	MeHg_pw_1_1
MeHg_pw_1_1_0460	0.39107578	2.7450	MeHg_pw_1_1
MeHg_pw_1_1_1135	0.270557113	2.7450	MeHg_pw_1_1
MeHg_pw_1_1_1137	0.309813675	2.7450	MeHg_pw_1_1
MeHg_pw_1_1_1139	0.129209187	2.7450	MeHg_pw_1_1
MeHg_pw_1_1_1501	0.494852316	2.7450	MeHg_pw_1_1
MeHg_pw_1_1_1502	0.821575136	2.7450	MeHg_pw_1_1
MeHg_pw_1_1_1504	0.492004481	2.7450	MeHg_pw_1_1
MeHg_pw_1_1_2544	0.89289957	2.7450	MeHg_pw_1_1
MeHg_pw_1_1_2545	0.234786339	2.7450	MeHg_pw_1_1
MeHg_pw_1_1_2546	0.600298191	2.7450	MeHg_pw_1_1
MeHg_pw_2_1_0023	0.704169517	2.0073	MeHg_pw_2_1
MeHg_pw_2_1_0058	1.174494143	2.0073	MeHg_pw_2_1
MeHg_pw_2_1_0083	0.810406291	2.0073	MeHg_pw_2_1
MeHg_pw_2_1_0371	0.040528254	2.0073	MeHg_pw_2_1
MeHg_pw_2_1_0459	0.447540704	2.0073	MeHg_pw_2_1
MeHg_pw_2_1_1136	0.093281725	2.0073	MeHg_pw_2_1
MeHg_pw_2_1_1503	0.613627576	2.0073	MeHg_pw_2_1
MeHg_pw_2_1_2547	0.10131581	2.0073	MeHg_pw_2_1
MeHg_Sed_1_1_0020	0.00338637	241.127	MeHg_sed_1_1
MeHg_Sed_1_1_0022	0.00175545	241.127	MeHg_sed_1_1
MeHg_Sed_1_1_0053	0.00327575	241.127	MeHg_sed_1_1
MeHg_Sed_1_1_0054	0.00196934	241.127	MeHg_sed_1_1
MeHg_Sed_1_1_0055	0.00453034	241.127	MeHg_sed_1_1
MeHg_Sed_1_1_0082	0.00353434	241.127	MeHg_sed_1_1
MeHg_Sed_1_1_0085	0.00461385	241.127	MeHg_sed_1_1
MeHg_Sed_1_1_0086	0.00229053	241.127	MeHg_sed_1_1
MeHg_Sed_1_1_0089	0.00240348	539.177	MeHg_sed_1_1
MeHg_Sed_1_1_0344	0.00340681	241.127	MeHg_sed_1_1
MeHg_Sed_1_1_0345	0.00349559	241.127	MeHg_sed_1_1
MeHg_Sed_1_1_0348	0.00289903	539.177	MeHg_sed_1_1
MeHg_Sed_1_1_0349	0.00261269	482.255	MeHg_sed_1_1
MeHg_Sed_1_1_0369	0.00241363	241.127	MeHg_sed_1_1
MeHg_Sed_1_1_0395	0.0054532	241.127	MeHg_sed_1_1
MeHg_Sed_1_1_0422	0.00261156	241.127	MeHg_sed_1_1
MeHg_Sed_1_1_0425	0.00179846	241.127	MeHg_sed_1_1
MeHg_Sed_1_1_0460	0.00284408	241.127	MeHg_sed_1_1
MeHg_Sed_1_1_0463	0.00511353	723.382	MeHg_sed_1_1
MeHg_Sed_1_1_0464	0.00550772	590.639	MeHg_sed_1_1
MeHg_Sed_1_1_0710	0.0015985	341.006	MeHg_sed_1_1
MeHg_Sed_1_1_0712	0.00437818	341.006	MeHg_sed_1_1
MeHg_Sed_1_1_0714	0.00341535	241.127	MeHg_sed_1_1
MeHg_Sed_1_1_0716	0.00595694	341.006	MeHg_sed_1_1
MeHg_Sed_1_1_0756	0.00256168	241.127	MeHg_sed_1_1
MeHg_Sed_1_1_0757	0.00089819	241.127	MeHg_sed_1_1
MeHg_Sed_1_1_0758	0.00255867	241.127	MeHg_sed_1_1
MeHg_Sed_1_1_0812	0.00481539	341.006	MeHg_sed_1_1
MeHg_Sed_1_1_0814	0.00395035	417.645	MeHg_sed_1_1
MeHg_Sed_1_1_0817	0.00306417	341.006	MeHg_sed_1_1
MeHg_Sed_1_1_1085	0.00931539	417.645	MeHg_sed_1_1
MeHg_Sed_1_1_1087	0.01197272	417.645	MeHg_sed_1_1
MeHg_Sed_1_1_1088	0.01063237	241.127	MeHg_sed_1_1
MeHg_Sed_1_1_1135	0.00368684	241.127	MeHg_sed_1_1
MeHg_Sed_1_1_1137	0.00429056	241.127	MeHg_sed_1_1
MeHg_Sed_1_1_1139	0.00344544	241.127	MeHg_sed_1_1
MeHg_Sed_1_1_1183	0.00579657	417.645	MeHg_sed_1_1
MeHg_Sed_1_1_1184	0.00565546	482.255	MeHg_sed_1_1
MeHg_Sed_1_1_1186	0.00580108	341.006	MeHg_sed_1_1
MeHg_Sed_1_1_1435	0.00686158	637.963	MeHg_sed_1_1
MeHg_Sed_1_1_1436	0.009342	241.127	MeHg_sed_1_1
MeHg_Sed_1_1_1437	0.00581285	241.127	MeHg_sed_1_1
MeHg_Sed_1_1_1501	0.00375406	241.127	MeHg_sed_1_1
MeHg_Sed_1_1_1502	0.00235291	241.127	MeHg_sed_1_1
MeHg_Sed_1_1_1504	0.00390526	241.127	MeHg_sed_1_1
MeHg_Sed_1_1_1551	0.00335842	482.255	MeHg_sed_1_1
MeHg_Sed_1_1_1552	0.00376602	341.006	MeHg_sed_1_1
MeHg_Sed_1_1_1810	0.00518062	341.006	MeHg_sed_1_1
MeHg_Sed_1_1_1811	0.00258229	417.645	MeHg_sed_1_1
MeHg_Sed_1_1_1911	0.00193324	637.963	MeHg_sed_1_1
MeHg_Sed_1_1_1912	0.00232256	341.006	MeHg_sed_1_1
MeHg_Sed_1_1_2284	0.00706263	682.011	MeHg_sed_1_1
MeHg_Sed_1_1_2544	0.00420274	417.645	MeHg_sed_1_1
MeHg_Sed_1_1_2545	0.00269517	241.127	MeHg_sed_1_1
MeHg_Sed_1_1_2546	0.00325334	241.127	MeHg_sed_1_1
MeHg_Sed_2_1_0023	0.00298159	171.745	MeHg_sed_2_1
MeHg_Sed_2_1_0058	0.00184336	171.745	MeHg_sed_2_1
MeHg_Sed_2_1_0082	0.00313548	171.745	MeHg_sed_2_1
MeHg_Sed_2_1_0089	0.0026615	343.489	MeHg_sed_2_1
MeHg_Sed_2_1_0347	0.00120285	171.745	MeHg_sed_2_1
MeHg_Sed_2_1_0349	0.0042813	171.745	MeHg_sed_2_1
MeHg_Sed_2_1_0371	0.00359207	171.745	MeHg_sed_2_1
MeHg_Sed_2_1_0459	0.00252815	171.745	MeHg_sed_2_1
MeHg_Sed_2_1_0464	0.00380014	171.745	MeHg_sed_2_1
MeHg_Sed_2_1_0465	0.0054089	343.489	MeHg_sed_2_1
MeHg_Sed_2_1_0714	0.0041349	171.745	MeHg_sed_2_1
MeHg_Sed_2_1_0715	0.00539291	242.884	MeHg_sed_2_1
MeHg_Sed_2_1_0759	0.00451514	171.745	MeHg_sed_2_1
MeHg_Sed_2_1_0813	0.00583793	171.745	MeHg_sed_2_1
MeHg_Sed_2_1_0814	0.00377992	297.470	MeHg_sed_2_1
MeHg_Sed_2_1_1087	0.02294289	171.745	MeHg_sed_2_1
MeHg_Sed_2_1_1088	0.01645638	297.470	MeHg_sed_2_1
MeHg_Sed_2_1_1136	0.00641002	171.745	MeHg_sed_2_1
MeHg_Sed_2_1_1183	0.01346254	171.745	MeHg_sed_2_1
MeHg_Sed_2_1_1185	0.01092507	343.489	MeHg_sed_2_1
MeHg_Sed_2_1_1436	0.00909837	297.470	MeHg_sed_2_1
MeHg_Sed_2_1_1437	0.0084383	297.470	MeHg_sed_2_1
MeHg_Sed_2_1_1503	0.00533026	171.745	MeHg_sed_2_1
MeHg_Sed_2_1_1551	0.01127072	242.884	MeHg_sed_2_1
MeHg_Sed_2_1_1552	0.00628552	242.884	MeHg_sed_2_1
MeHg_Sed_2_1_1809	0.00364047	384.033	MeHg_sed_2_1
MeHg_Sed_2_1_1810	0.0044129	343.489	MeHg_sed_2_1
MeHg_Sed_2_1_1811	0.00380151	420.687	MeHg_sed_2_1
MeHg_Sed_2_1_1911	0.00360328	297.470	MeHg_sed_2_1
MeHg_Sed_2_1_1912	0.00183798	485.767	MeHg_sed_2_1
MeHg_Sed_2_1_2284	0.00605252	594.941	MeHg_sed_2_1
MeHg_Sed_2_1_2543	0.00231762	343.489	MeHg_sed_2_1
MeHg_Sed_2_1_2544	0.00559502	171.745	MeHg_sed_2_1
MeHg_Sed_2_1_2545	0.00270566	242.884	MeHg_sed_2_1
MeHg_Sed_2_1_2547	0.00410785	297.470	MeHg_sed_2_1
HgII_pw_1_1_0019	1.158860944	0.5958	HgII_pw_1_1
HgII_pw_1_1_0020	1.732877715	0.5958	HgII_pw_1_1
HgII_pw_1_1_0022	1.943236796	0.5958	HgII_pw_1_1
HgII_pw_1_1_0053	1.391300747	0.5958	HgII_pw_1_1
HgII_pw_1_1_0054	2.133370679	0.5958	HgII_pw_1_1
HgII_pw_1_1_0055	0.965800342	0.5958	HgII_pw_1_1
HgII_pw_1_1_0082	1.322454809	0.5958	HgII_pw_1_1
HgII_pw_1_1_0085	0.7414973	0.5958	HgII_pw_1_1
HgII_pw_1_1_0086	0.793471764	0.5958	HgII_pw_1_1
HgII_pw_1_1_0344	1.221791831	0.5958	HgII_pw_1_1
HgII_pw_1_1_0345	4.731466288	0.5958	HgII_pw_1_1
HgII_pw_1_1_0369	2.282626619	0.5958	HgII_pw_1_1
HgII_pw_1_1_0395	1.157539318	0.5958	HgII_pw_1_1
HgII_pw_1_1_0422	2.16733046	0.5958	HgII_pw_1_1
HgII_pw_1_1_0425	2.293169297	0.5958	HgII_pw_1_1
HgII_pw_1_1_0460	0.707118695	0.5958	HgII_pw_1_1
HgII_pw_1_1_1135	3.459442887	0.5958	HgII_pw_1_1
HgII_pw_1_1_1137	1.650186325	0.5958	HgII_pw_1_1
HgII_pw_1_1_1139	1.490790813	0.5958	HgII_pw_1_1
HgII_pw_1_1_1501	1.054302867	0.5958	HgII_pw_1_1
HgII_pw_1_1_1502	1.057710279	0.5958	HgII_pw_1_1
HgII_pw_1_1_1504	0.742176285	0.5958	HgII_pw_1_1
HgII_pw_1_1_2544	1.812020086	0.5958	HgII_pw_1_1
HgII_pw_1_1_2545	1.185271474	0.5958	HgII_pw_1_1
HgII_pw_1_1_2546	2.762913503	0.5958	HgII_pw_1_1
HgII_pw_2_1_0023	1.160346009	0.5627	HgII_pw_2_1
HgII_pw_2_1_0058	1.542934161	0.5627	HgII_pw_2_1
HgII_pw_2_1_0083	1.739653638	0.5627	HgII_pw_2_1
HgII_pw_2_1_0345	1.893069764	0.5627	HgII_pw_2_1
HgII_pw_2_1_0371	1.684615476	0.5627	HgII_pw_2_1
HgII_pw_2_1_0459	0.345282641	0.5627	HgII_pw_2_1
HgII_pw_2_1_1136	4.516718275	0.5627	HgII_pw_2_1
HgII_pw_2_1_1503	0.695934045	0.5627	HgII_pw_2_1
HgII_pw_2_1_2547	2.415917963	0.5627	HgII_pw_2_1
HgII_Sed_1_1_0020	0.09837727	7.2445	HgII_sed_1_1
HgII_Sed_1_1_0022	0.04108129	7.2445	HgII_sed_1_1
HgII_Sed_1_1_0053	0.10103524	7.2445	HgII_sed_1_1
HgII_Sed_1_1_0054	0.06159486	7.2445	HgII_sed_1_1
HgII_Sed_1_1_0055	0.11993494	7.2445	HgII_sed_1_1
HgII_Sed_1_1_0082	0.1005375	7.2445	HgII_sed_1_1
HgII_Sed_1_1_0085	0.14094749	7.2445	HgII_sed_1_1
HgII_Sed_1_1_0086	0.07617679	7.2445	HgII_sed_1_1
HgII_Sed_1_1_0089	0.08742346	16.1992	HgII_sed_1_1
HgII_Sed_1_1_0344	0.12906916	7.2445	HgII_sed_1_1
HgII_Sed_1_1_0345	0.11961873	7.2445	HgII_sed_1_1
HgII_Sed_1_1_0348	0.04782704	16.1992	HgII_sed_1_1
HgII_Sed_1_1_0349	0.04809444	14.489	HgII_sed_1_1
HgII_Sed_1_1_0369	0.13658464	7.2445	HgII_sed_1_1
HgII_Sed_1_1_0395	0.13548676	7.2445	HgII_sed_1_1
HgII_Sed_1_1_0422	0.16322854	7.2445	HgII_sed_1_1
HgII_Sed_1_1_0425	0.10770509	7.2445	HgII_sed_1_1
HgII_Sed_1_1_0460	0.16039334	7.2445	HgII_sed_1_1
HgII_Sed_1_1_0463	0.0979164	21.7335	HgII_sed_1_1
HgII_Sed_1_1_0464	0.15425926	17.7453	HgII_sed_1_1
HgII_Sed_1_1_0710	0.11205437	12.5478	HgII_sed_1_1
HgII_Sed_1_1_0712	0.19865192	10.2453	HgII_sed_1_1
HgII_Sed_1_1_0714	0.15305791	10.2453	HgII_sed_1_1
HgII_Sed_1_1_0716	0.09834027	12.5478	HgII_sed_1_1
HgII_Sed_1_1_0756	0.08114239	7.2445	HgII_sed_1_1
HgII_Sed_1_1_0757	0.0425978	7.2445	HgII_sed_1_1
HgII_Sed_1_1_0758	0.10826298	7.2445	HgII_sed_1_1
HgII_Sed_1_1_0812	0.11228561	12.5478	HgII_sed_1_1
HgII_Sed_1_1_0814	0.11134393	14.489	HgII_sed_1_1
HgII_Sed_1_1_0817	0.10387581	12.5478	HgII_sed_1_1
HgII_Sed_1_1_1085	0.20704288	12.5478	HgII_sed_1_1
HgII_Sed_1_1_1087	0.30036982	12.5478	HgII_sed_1_1
HgII_Sed_1_1_1088	0.47921779	7.2445	HgII_sed_1_1
HgII_Sed_1_1_1135	0.07285962	7.2445	HgII_sed_1_1
HgII_Sed_1_1_1137	0.16147163	7.2445	HgII_sed_1_1
HgII_Sed_1_1_1139	0.12086523	7.2445	HgII_sed_1_1
HgII_Sed_1_1_1183	0.23358714	12.5478	HgII_sed_1_1
HgII_Sed_1_1_1184	0.24472379	14.489	HgII_sed_1_1
HgII_Sed_1_1_1186	0.24947946	10.2453	HgII_sed_1_1
HgII_Sed_1_1_1435	0.22449523	19.1671	HgII_sed_1_1
HgII_Sed_1_1_1436	0.18742178	7.2445	HgII_sed_1_1
HgII_Sed_1_1_1437	0.17939944	7.2445	HgII_sed_1_1
HgII_Sed_1_1_1501	0.11199895	7.2445	HgII_sed_1_1
HgII_Sed_1_1_1502	0.07137057	7.2445	HgII_sed_1_1
HgII_Sed_1_1_1504	0.10285884	7.2445	HgII_sed_1_1
HgII_Sed_1_1_1551	0.10943535	14.489	HgII_sed_1_1
HgII_Sed_1_1_1552	0.09066748	10.2453	HgII_sed_1_1
HgII_Sed_1_1_1810	0.11278798	10.2453	HgII_sed_1_1
HgII_Sed_1_1_1811	0.10260718	12.5478	HgII_sed_1_1
HgII_Sed_1_1_1911	0.08262762	19.1671	HgII_sed_1_1
HgII_Sed_1_1_1912	0.06961115	10.2453	HgII_sed_1_1
HgII_Sed_1_1_2284	0.22387115	20.4905	HgII_sed_1_1
HgII_Sed_1_1_2544	0.21646241	12.5478	HgII_sed_1_1
HgII_Sed_1_1_2545	0.21245747	7.2445	HgII_sed_1_1
HgII_Sed_1_1_2546	0.1753761	7.2445	HgII_sed_1_1