pcf
* control data
restart estimation
2707  1449  4  0  12
4  2  single  point  1  0  0
2.000000e+001  -3.000000e+000  3.000000e-001  1.000000e-002  7 999 lamforgive
1.000000e+001  1.000000e+001  1.000000e-003
1.000000e-001 1 noaui
0  1.000000e-002  3  3  1.000000e-002  3
0  0  0   PARSAVEITN
* singular value decomposition
  1
  1715  5.000000e-007
  1
* parameter groups
Kp     relative   1.000000e-002  0.000000e+000  switch  2.000000e+000  parabolic
Kz     relative   1.000000e-002  0.000000e+000  switch  2.000000e+000  parabolic
Rech   relative   1.000000e-002  0.000000e+000  switch  2.000000e+000  parabolic
Cond   relative   1.000000e-002  0.000000e+000  switch  2.000000e+000  parabolic
* parameter data
sfrc log factor   0.9300612      1.00e-10 1.00e+10 cond 1 0 1
ghbc log factor    74.50976      1.00e-10 1.00e+10 cond 1 0 1
rch_mult log factor   0.7877460      1.00e-10 1.00e+10 rech 1 0 1
kpkp89_q log factor    1.000000      1.0e-10 1.0e+10 kp 1.0 0.0 1
kpkp90_q log factor   0.9996315      1.0e-10 1.0e+10 kp 1.0 0.0 1
kpkp106_q log factor   0.9758523      1.0e-10 1.0e+10 kp 1.0 0.0 1
kpkp107_q log factor   0.8278532      1.0e-10 1.0e+10 kp 1.0 0.0 1
kpkp108_q log factor    1.441685      1.0e-10 1.0e+10 kp 1.0 0.0 1
kpkp122_q log factor    2.040488      1.0e-10 1.0e+10 kp 1.0 0.0 1
kpkp123_q log factor    1.011713      1.0e-10 1.0e+10 kp 1.0 0.0 1
kpkp124_q log factor    1.143099      1.0e-10 1.0e+10 kp 1.0 0.0 1
kpkp125_q log factor    2.065267      1.0e-10 1.0e+10 kp 1.0 0.0 1
kpkp126_q log factor    8.865887      1.0e-10 1.0e+10 kp 1.0 0.0 1
kpkp139_q log factor    4.018908      1.0e-10 1.0e+10 kp 1.0 0.0 1
kpkp140_q log factor    1.358717      1.0e-10 1.0e+10 kp 1.0 0.0 1
kpkp141_q log factor   0.2296846      1.0e-10 1.0e+10 kp 1.0 0.0 1
kpkp142_q log factor   4.1167922E-02  1.0e-10 1.0e+10 kp 1.0 0.0 1
kpkp143_q log factor    2.028146      1.0e-10 1.0e+10 kp 1.0 0.0 1
kpkp144_q log factor    7.493480      1.0e-10 1.0e+10 kp 1.0 0.0 1
kpkp156_q log factor    1.492943      1.0e-10 1.0e+10 kp 1.0 0.0 1
kpkp157_q log factor    2.926269      1.0e-10 1.0e+10 kp 1.0 0.0 1
kpkp158_q log factor   0.7267110      1.0e-10 1.0e+10 kp 1.0 0.0 1
kpkp159_q log factor   0.2445764      1.0e-10 1.0e+10 kp 1.0 0.0 1
kpkp160_q log factor   0.5718536      1.0e-10 1.0e+10 kp 1.0 0.0 1
kpkp161_q log factor   0.9806128      1.0e-10 1.0e+10 kp 1.0 0.0 1
kpkp173_q log factor   0.9512453      1.0e-10 1.0e+10 kp 1.0 0.0 1
kpkp174_q log factor    1.279954      1.0e-10 1.0e+10 kp 1.0 0.0 1
kpkp175_q log factor    1.539619      1.0e-10 1.0e+10 kp 1.0 0.0 1
kpkp176_q log factor    1.619269      1.0e-10 1.0e+10 kp 1.0 0.0 1
kpkp177_q log factor    1.083065      1.0e-10 1.0e+10 kp 1.0 0.0 1
kpkp191_q log factor   0.5873970      1.0e-10 1.0e+10 kp 1.0 0.0 1
kpkp192_q log factor    1.096606      1.0e-10 1.0e+10 kp 1.0 0.0 1
kpkp193_q log factor   0.3697981      1.0e-10 1.0e+10 kp 1.0 0.0 1
kpkp202_q log factor    1.508325      1.0e-10 1.0e+10 kp 1.0 0.0 1
kpkp203_q log factor    1.863324      1.0e-10 1.0e+10 kp 1.0 0.0 1
kpkp204_q log factor    1.489978      1.0e-10 1.0e+10 kp 1.0 0.0 1
kpkp205_q log factor    1.669978      1.0e-10 1.0e+10 kp 1.0 0.0 1
kpkp206_q log factor   6.2091609E-02  1.0e-10 1.0e+10 kp 1.0 0.0 1
kpkp207_q log factor   0.5593427      1.0e-10 1.0e+10 kp 1.0 0.0 1
kpkp208_q log factor    3.879063      1.0e-10 1.0e+10 kp 1.0 0.0 1
kpkp209_q log factor    2.495900      1.0e-10 1.0e+10 kp 1.0 0.0 1
kpkp217_q log factor   0.3260477      1.0e-10 1.0e+10 kp 1.0 0.0 1
kpkp218_q log factor   0.3259274      1.0e-10 1.0e+10 kp 1.0 0.0 1
kpkp219_q log factor   0.7630793      1.0e-10 1.0e+10 kp 1.0 0.0 1
kpkp220_q log factor    1.001324      1.0e-10 1.0e+10 kp 1.0 0.0 1
kpkp221_q log factor    1.009311      1.0e-10 1.0e+10 kp 1.0 0.0 1
kpkp222_q log factor    1.258181      1.0e-10 1.0e+10 kp 1.0 0.0 1
kpkp223_q log factor    288.6335      1.0e-10 1.0e+10 kp 1.0 0.0 1
kpkp224_q log factor   0.9872075      1.0e-10 1.0e+10 kp 1.0 0.0 1
kpkp225_q log factor   0.8432113      1.0e-10 1.0e+10 kp 1.0 0.0 1
kpkp235_q log factor    4.264610      1.0e-10 1.0e+10 kp 1.0 0.0 1
kpkp236_q log factor    33.06831      1.0e-10 1.0e+10 kp 1.0 0.0 1
kpkp237_q log factor    2.942638      1.0e-10 1.0e+10 kp 1.0 0.0 1
kpkp238_q log factor   0.6889951      1.0e-10 1.0e+10 kp 1.0 0.0 1
kpkp239_q log factor   0.8464559      1.0e-10 1.0e+10 kp 1.0 0.0 1
kpkp240_q log factor   0.9408797      1.0e-10 1.0e+10 kp 1.0 0.0 1
kpkp253_q log factor   0.9444068      1.0e-10 1.0e+10 kp 1.0 0.0 1
kpkp255_q log factor    1.272950      1.0e-10 1.0e+10 kp 1.0 0.0 1
kpkp256_q log factor    1.681145      1.0e-10 1.0e+10 kp 1.0 0.0 1
kpkp162_q log factor    2.101463      1.0e-10 1.0e+10 kp 1.0 0.0 1
kpkp178_q log factor   0.8332925      1.0e-10 1.0e+10 kp 1.0 0.0 1
kpkp179_q log factor   0.8468945      1.0e-10 1.0e+10 kp 1.0 0.0 1
kpkp194_q log factor    1.299815      1.0e-10 1.0e+10 kp 1.0 0.0 1
kpkp195_q log factor    1.066277      1.0e-10 1.0e+10 kp 1.0 0.0 1
kpkp196_q log factor    1.494942      1.0e-10 1.0e+10 kp 1.0 0.0 1
kpkp210_q log factor   0.8268735      1.0e-10 1.0e+10 kp 1.0 0.0 1
kpkp211_q log factor    1.070831      1.0e-10 1.0e+10 kp 1.0 0.0 1
kpkp212_q log factor    1.014417      1.0e-10 1.0e+10 kp 1.0 0.0 1
kpkp226_q log factor    4.174473      1.0e-10 1.0e+10 kp 1.0 0.0 1
kpkp227_q log factor    1.180104      1.0e-10 1.0e+10 kp 1.0 0.0 1
kpkp228_q log factor    1.026856      1.0e-10 1.0e+10 kp 1.0 0.0 1
kpkp241_q log factor   0.6824884      1.0e-10 1.0e+10 kp 1.0 0.0 1
kpkp242_q log factor   0.9243493      1.0e-10 1.0e+10 kp 1.0 0.0 1
kpkp243_q log factor    1.238838      1.0e-10 1.0e+10 kp 1.0 0.0 1
kpkp180_q log factor   0.9485666      1.0e-10 1.0e+10 kp 1.0 0.0 1
kpkp197_q log factor    1.200763      1.0e-10 1.0e+10 kp 1.0 0.0 1
kpkp198_q log factor    1.072470      1.0e-10 1.0e+10 kp 1.0 0.0 1
kpkp213_q log factor    1.213319      1.0e-10 1.0e+10 kp 1.0 0.0 1
kpkp214_q log factor    1.036622      1.0e-10 1.0e+10 kp 1.0 0.0 1
kpkp215_q log factor   0.9649744      1.0e-10 1.0e+10 kp 1.0 0.0 1
kpkp216_q log factor   0.9899922      1.0e-10 1.0e+10 kp 1.0 0.0 1
kpkp229_q log factor    1.000000      1.0e-10 1.0e+10 kp 1.0 0.0 1
kpkp230_q log factor    1.000000      1.0e-10 1.0e+10 kp 1.0 0.0 1
kpkp231_q log factor   0.8774725      1.0e-10 1.0e+10 kp 1.0 0.0 1
kpkp232_q log factor   0.5052622      1.0e-10 1.0e+10 kp 1.0 0.0 1
kpkp233_q log factor   0.4616851      1.0e-10 1.0e+10 kp 1.0 0.0 1
kpkp234_q log factor   0.9980855      1.0e-10 1.0e+10 kp 1.0 0.0 1
kpkp245_q log factor    1.462276      1.0e-10 1.0e+10 kp 1.0 0.0 1
kpkp246_q log factor    1.552612      1.0e-10 1.0e+10 kp 1.0 0.0 1
kpkp247_q log factor    1.141488      1.0e-10 1.0e+10 kp 1.0 0.0 1
kpkp248_q log factor   0.7693810      1.0e-10 1.0e+10 kp 1.0 0.0 1
kpkp249_q log factor    1.966206      1.0e-10 1.0e+10 kp 1.0 0.0 1
kpkp250_q log factor   0.3266566      1.0e-10 1.0e+10 kp 1.0 0.0 1
kpkp251_q log factor    1.413252      1.0e-10 1.0e+10 kp 1.0 0.0 1
kpkp252_q log factor    1.626199      1.0e-10 1.0e+10 kp 1.0 0.0 1
kpkp254_q log factor    1.280257      1.0e-10 1.0e+10 kp 1.0 0.0 1
kpkp257_q log factor   0.9823087      1.0e-10 1.0e+10 kp 1.0 0.0 1
kpkp258_q log factor    1.851072      1.0e-10 1.0e+10 kp 1.0 0.0 1
kpkp259_q log factor   0.9752704      1.0e-10 1.0e+10 kp 1.0 0.0 1
kpkp260_q log factor    1.171382      1.0e-10 1.0e+10 kp 1.0 0.0 1
kpkp261_q log factor    1.120208      1.0e-10 1.0e+10 kp 1.0 0.0 1
kpkp262_q log factor    1.434829      1.0e-10 1.0e+10 kp 1.0 0.0 1
kpkp263_q log factor   0.4872006      1.0e-10 1.0e+10 kp 1.0 0.0 1
kpkp264_q log factor   0.8065972      1.0e-10 1.0e+10 kp 1.0 0.0 1
kpkp265_q log factor   0.9955871      1.0e-10 1.0e+10 kp 1.0 0.0 1
kpkp266_q log factor   0.9065659      1.0e-10 1.0e+10 kp 1.0 0.0 1
kpkp267_q log factor   0.3324248      1.0e-10 1.0e+10 kp 1.0 0.0 1
kpkp268_q log factor   0.8063958      1.0e-10 1.0e+10 kp 1.0 0.0 1
kpkp269_q log factor    1.453448      1.0e-10 1.0e+10 kp 1.0 0.0 1
kpkp270_q log factor    7.859170      1.0e-10 1.0e+10 kp 1.0 0.0 1
kpkp271_q log factor   0.9996315      1.0e-10 1.0e+10 kp 1.0 0.0 1
kpkp272_q log factor    1.003013      1.0e-10 1.0e+10 kp 1.0 0.0 1
kpkp273_q log factor    1.914996      1.0e-10 1.0e+10 kp 1.0 0.0 1
kpkp274_q log factor    5.072938      1.0e-10 1.0e+10 kp 1.0 0.0 1
kpkp275_q log factor    2.500687      1.0e-10 1.0e+10 kp 1.0 0.0 1
kpkp276_q log factor    1.776319      1.0e-10 1.0e+10 kp 1.0 0.0 1
kpkp277_q log factor    1.428566      1.0e-10 1.0e+10 kp 1.0 0.0 1
kpkp278_q log factor    1.298080      1.0e-10 1.0e+10 kp 1.0 0.0 1
kpkp279_q log factor   0.8793389      1.0e-10 1.0e+10 kp 1.0 0.0 1
kpkp280_q log factor    1.667008      1.0e-10 1.0e+10 kp 1.0 0.0 1
kpkp281_q log factor   0.5044464      1.0e-10 1.0e+10 kp 1.0 0.0 1
kpkp282_q log factor   4.7389635E-02  1.0e-10 1.0e+10 kp 1.0 0.0 1
kpkp283_q log factor   0.2398044      1.0e-10 1.0e+10 kp 1.0 0.0 1
kpkp284_q log factor   0.6123605      1.0e-10 1.0e+10 kp 1.0 0.0 1
kpkp285_q log factor    1.552404      1.0e-10 1.0e+10 kp 1.0 0.0 1
kpkp286_q log factor    1.392115      1.0e-10 1.0e+10 kp 1.0 0.0 1
kpkp287_q log factor    1.013195      1.0e-10 1.0e+10 kp 1.0 0.0 1
kpkp288_q log factor    5.531843      1.0e-10 1.0e+10 kp 1.0 0.0 1
kpkp289_q log factor    1.276654      1.0e-10 1.0e+10 kp 1.0 0.0 1
kpkp290_q log factor    1.303036      1.0e-10 1.0e+10 kp 1.0 0.0 1
kpkp291_q log factor   0.6906038      1.0e-10 1.0e+10 kp 1.0 0.0 1
kpkp292_q log factor    1.049834      1.0e-10 1.0e+10 kp 1.0 0.0 1
kpkp293_q log factor    22.87933      1.0e-10 1.0e+10 kp 1.0 0.0 1
kpkp294_q log factor    1.309556      1.0e-10 1.0e+10 kp 1.0 0.0 1
kpkp295_q log factor   0.3776280      1.0e-10 1.0e+10 kp 1.0 0.0 1
kpkp296_q log factor   0.3337039      1.0e-10 1.0e+10 kp 1.0 0.0 1
kpkp297_q log factor    1.404199      1.0e-10 1.0e+10 kp 1.0 0.0 1
kpkp298_q log factor   0.6472998      1.0e-10 1.0e+10 kp 1.0 0.0 1
kpkp299_q log factor   4.9907347E-02  1.0e-10 1.0e+10 kp 1.0 0.0 1
kpkp300_q log factor   7.8990347E-02  1.0e-10 1.0e+10 kp 1.0 0.0 1
kpkp301_q log factor    2.439553      1.0e-10 1.0e+10 kp 1.0 0.0 1
kpkp302_q log factor    1.072701      1.0e-10 1.0e+10 kp 1.0 0.0 1
kpkp303_q log factor    1.171657      1.0e-10 1.0e+10 kp 1.0 0.0 1
kpkp304_q log factor   0.9983283      1.0e-10 1.0e+10 kp 1.0 0.0 1
kpkp305_q log factor    2.560577      1.0e-10 1.0e+10 kp 1.0 0.0 1
kpkp306_q log factor    1.035665      1.0e-10 1.0e+10 kp 1.0 0.0 1
kpkp307_q log factor    1.110017      1.0e-10 1.0e+10 kp 1.0 0.0 1
kpkp308_q log factor   0.2434448      1.0e-10 1.0e+10 kp 1.0 0.0 1
kpkp309_q log factor   0.4556587      1.0e-10 1.0e+10 kp 1.0 0.0 1
kpkp310_q log factor    1.145129      1.0e-10 1.0e+10 kp 1.0 0.0 1
kpkp311_q log factor    2.110977      1.0e-10 1.0e+10 kp 1.0 0.0 1
kpkp312_q log factor    1.679018      1.0e-10 1.0e+10 kp 1.0 0.0 1
kpkp313_q log factor   0.4420132      1.0e-10 1.0e+10 kp 1.0 0.0 1
kpkp314_q log factor    1.195758      1.0e-10 1.0e+10 kp 1.0 0.0 1
kpkp315_q log factor    2.829568      1.0e-10 1.0e+10 kp 1.0 0.0 1
kpkp316_q log factor   0.4879817      1.0e-10 1.0e+10 kp 1.0 0.0 1
kpkp317_q log factor    8.591071      1.0e-10 1.0e+10 kp 1.0 0.0 1
kpkp318_q log factor   0.9271615      1.0e-10 1.0e+10 kp 1.0 0.0 1
kpkp319_q log factor    3.179735      1.0e-10 1.0e+10 kp 1.0 0.0 1
kpkp320_q log factor    1.050262      1.0e-10 1.0e+10 kp 1.0 0.0 1
kpkp321_q log factor    1.365331      1.0e-10 1.0e+10 kp 1.0 0.0 1
kpkp322_q log factor    1.002554      1.0e-10 1.0e+10 kp 1.0 0.0 1
kpkp323_q log factor    1.238941      1.0e-10 1.0e+10 kp 1.0 0.0 1
kpkp324_q log factor    1.242751      1.0e-10 1.0e+10 kp 1.0 0.0 1
kpkp1_q log factor    1.727422      1.0e-10 1.0e+10 kp 1.0 0.0 1
kpkp2_q log factor   0.7399056      1.0e-10 1.0e+10 kp 1.0 0.0 1
kpkp3_q log factor   0.8722168      1.0e-10 1.0e+10 kp 1.0 0.0 1
kpkp4_q log factor    3.408610      1.0e-10 1.0e+10 kp 1.0 0.0 1
kpkp5_q tied factor    3.408610      1.0e-10 1.0e+10 kp 1.0 0.0 1
kpkp6_q tied factor    3.408610      1.0e-10 1.0e+10 kp 1.0 0.0 1
kpkp7_q tied factor   0.9915382      1.0e-10 1.0e+10 kp 1.0 0.0 1
kpkp8_q tied factor   0.9303829      1.0e-10 1.0e+10 kp 1.0 0.0 1
kpkp9_q tied factor   0.9445950      1.0e-10 1.0e+10 kp 1.0 0.0 1
kpkp10_q tied factor   0.9445950      1.0e-10 1.0e+10 kp 1.0 0.0 1
kpkp11_q tied factor   0.9445950      1.0e-10 1.0e+10 kp 1.0 0.0 1
kpkp12_q tied factor   0.9445950      1.0e-10 1.0e+10 kp 1.0 0.0 1
kpkp13_q tied factor    1.002953      1.0e-10 1.0e+10 kp 1.0 0.0 1
kpkp14_q tied factor    1.002953      1.0e-10 1.0e+10 kp 1.0 0.0 1
kpkp15_q tied factor    1.000000      1.0e-10 1.0e+10 kp 1.0 0.0 1
kpkp16_q tied factor    1.000000      1.0e-10 1.0e+10 kp 1.0 0.0 1
kpkp17_q tied factor    1.000000      1.0e-10 1.0e+10 kp 1.0 0.0 1
kpkp18_q tied factor    1.000000      1.0e-10 1.0e+10 kp 1.0 0.0 1
kpkp19_q log factor   0.2428912      1.0e-10 1.0e+10 kp 1.0 0.0 1
kpkp20_q log factor   0.9513046      1.0e-10 1.0e+10 kp 1.0 0.0 1
kpkp21_q log factor   0.3656817      1.0e-10 1.0e+10 kp 1.0 0.0 1
kpkp22_q log factor    1.068641      1.0e-10 1.0e+10 kp 1.0 0.0 1
kpkp23_q tied factor    1.068641      1.0e-10 1.0e+10 kp 1.0 0.0 1
kpkp24_q tied factor   0.9915382      1.0e-10 1.0e+10 kp 1.0 0.0 1
kpkp25_q tied factor   0.9915382      1.0e-10 1.0e+10 kp 1.0 0.0 1
kpkp26_q tied factor   0.9303829      1.0e-10 1.0e+10 kp 1.0 0.0 1
kpkp27_q tied factor   0.9445950      1.0e-10 1.0e+10 kp 1.0 0.0 1
kpkp28_q tied factor   0.9445950      1.0e-10 1.0e+10 kp 1.0 0.0 1
kpkp29_q tied factor   0.9445950      1.0e-10 1.0e+10 kp 1.0 0.0 1
kpkp30_q tied factor    1.228727      1.0e-10 1.0e+10 kp 1.0 0.0 1
kpkp31_q tied factor    1.002953      1.0e-10 1.0e+10 kp 1.0 0.0 1
kpkp32_q tied factor    1.002953      1.0e-10 1.0e+10 kp 1.0 0.0 1
kpkp33_q tied factor    1.000000      1.0e-10 1.0e+10 kp 1.0 0.0 1
kpkp34_q tied factor    1.000000      1.0e-10 1.0e+10 kp 1.0 0.0 1
kpkp35_q tied factor    1.000000      1.0e-10 1.0e+10 kp 1.0 0.0 1
kpkp36_q tied factor    1.000000      1.0e-10 1.0e+10 kp 1.0 0.0 1
kpkp37_q log factor    1.540073      1.0e-10 1.0e+10 kp 1.0 0.0 1
kpkp38_q log factor   0.3814967      1.0e-10 1.0e+10 kp 1.0 0.0 1
kpkp39_q log factor   0.4863060      1.0e-10 1.0e+10 kp 1.0 0.0 1
kpkp40_q tied factor    1.068641      1.0e-10 1.0e+10 kp 1.0 0.0 1
kpkp41_q tied factor    1.068641      1.0e-10 1.0e+10 kp 1.0 0.0 1
kpkp42_q tied factor   0.9915382      1.0e-10 1.0e+10 kp 1.0 0.0 1
kpkp43_q log factor   0.9915382      1.0e-10 1.0e+10 kp 1.0 0.0 1
kpkp44_q log factor   0.9303829      1.0e-10 1.0e+10 kp 1.0 0.0 1
kpkp45_q log factor   0.9445950      1.0e-10 1.0e+10 kp 1.0 0.0 1
kpkp46_q tied factor   0.9445950      1.0e-10 1.0e+10 kp 1.0 0.0 1
kpkp47_q tied factor    1.228727      1.0e-10 1.0e+10 kp 1.0 0.0 1
kpkp48_q tied factor   0.6838770      1.0e-10 1.0e+10 kp 1.0 0.0 1
kpkp49_q tied factor    1.002953      1.0e-10 1.0e+10 kp 1.0 0.0 1
kpkp50_q tied factor    1.002953      1.0e-10 1.0e+10 kp 1.0 0.0 1
kpkp51_q tied factor    1.000000      1.0e-10 1.0e+10 kp 1.0 0.0 1
kpkp52_q tied factor    1.000000      1.0e-10 1.0e+10 kp 1.0 0.0 1
kpkp53_q tied factor    1.000000      1.0e-10 1.0e+10 kp 1.0 0.0 1
kpkp54_q tied factor    1.000000      1.0e-10 1.0e+10 kp 1.0 0.0 1
kpkp55_q log factor    1.014971      1.0e-10 1.0e+10 kp 1.0 0.0 1
kpkp56_q log factor   0.8251162      1.0e-10 1.0e+10 kp 1.0 0.0 1
kpkp57_q log factor    1.722864      1.0e-10 1.0e+10 kp 1.0 0.0 1
kpkp58_q tied factor    1.722864      1.0e-10 1.0e+10 kp 1.0 0.0 1
kpkp59_q tied factor    1.119619      1.0e-10 1.0e+10 kp 1.0 0.0 1
kpkp60_q log factor    1.119619      1.0e-10 1.0e+10 kp 1.0 0.0 1
kpkp61_q log factor    1.106848      1.0e-10 1.0e+10 kp 1.0 0.0 1
kpkp62_q log factor    1.000669      1.0e-10 1.0e+10 kp 1.0 0.0 1
kpkp63_q log factor    1.303134      1.0e-10 1.0e+10 kp 1.0 0.0 1
kpkp64_q log factor    1.228727      1.0e-10 1.0e+10 kp 1.0 0.0 1
kpkp65_q tied factor    1.228727      1.0e-10 1.0e+10 kp 1.0 0.0 1
kpkp66_q tied factor   0.6838770      1.0e-10 1.0e+10 kp 1.0 0.0 1
kpkp67_q tied factor    1.002953      1.0e-10 1.0e+10 kp 1.0 0.0 1
kpkp68_q tied factor    1.002953      1.0e-10 1.0e+10 kp 1.0 0.0 1
kpkp69_q tied factor    1.000000      1.0e-10 1.0e+10 kp 1.0 0.0 1
kpkp70_q tied factor    1.000000      1.0e-10 1.0e+10 kp 1.0 0.0 1
kpkp71_q tied factor    1.000000      1.0e-10 1.0e+10 kp 1.0 0.0 1
kpkp72_q log factor    1.000000      1.0e-10 1.0e+10 kp 1.0 0.0 1
kpkp73_q log factor   0.2611361      1.0e-10 1.0e+10 kp 1.0 0.0 1
kpkp74_q log factor    2.644586      1.0e-10 1.0e+10 kp 1.0 0.0 1
kpkp75_q log factor    1.066512      1.0e-10 1.0e+10 kp 1.0 0.0 1
kpkp76_q log factor    1.720420      1.0e-10 1.0e+10 kp 1.0 0.0 1
kpkp77_q log factor    4.541696      1.0e-10 1.0e+10 kp 1.0 0.0 1
kpkp78_q log factor    1.367137      1.0e-10 1.0e+10 kp 1.0 0.0 1
kpkp79_q log factor    1.297860      1.0e-10 1.0e+10 kp 1.0 0.0 1
kpkp80_q log factor    1.767060      1.0e-10 1.0e+10 kp 1.0 0.0 1
kpkp81_q log factor    1.921216      1.0e-10 1.0e+10 kp 1.0 0.0 1
kpkp82_q log factor    1.891194      1.0e-10 1.0e+10 kp 1.0 0.0 1
kpkp83_q log factor   0.4383254      1.0e-10 1.0e+10 kp 1.0 0.0 1
kpkp84_q log factor   0.6838770      1.0e-10 1.0e+10 kp 1.0 0.0 1
kpkp85_q log factor    1.002953      1.0e-10 1.0e+10 kp 1.0 0.0 1
kpkp86_q tied factor   0.9961760      1.0e-10 1.0e+10 kp 1.0 0.0 1
kpkp87_q tied factor   0.9719947      1.0e-10 1.0e+10 kp 1.0 0.0 1
kpkp88_q log factor    1.000000      1.0e-10 1.0e+10 kp 1.0 0.0 1
kpkp91_q log factor    1.820925      1.0e-10 1.0e+10 kp 1.0 0.0 1
kpkp92_q log factor    1.805967      1.0e-10 1.0e+10 kp 1.0 0.0 1
kpkp93_q log factor    1.002258      1.0e-10 1.0e+10 kp 1.0 0.0 1
kpkp94_q log factor    1.622883      1.0e-10 1.0e+10 kp 1.0 0.0 1
kpkp95_q log factor    1.130380      1.0e-10 1.0e+10 kp 1.0 0.0 1
kpkp96_q log factor    1.079664      1.0e-10 1.0e+10 kp 1.0 0.0 1
kpkp97_q log factor   0.6923661      1.0e-10 1.0e+10 kp 1.0 0.0 1
kpkp98_q log factor   0.2917527      1.0e-10 1.0e+10 kp 1.0 0.0 1
kpkp99_q log factor   0.3825650      1.0e-10 1.0e+10 kp 1.0 0.0 1
kpkp100_q log factor   0.9199586      1.0e-10 1.0e+10 kp 1.0 0.0 1
kpkp101_q log factor    1.136099      1.0e-10 1.0e+10 kp 1.0 0.0 1
kpkp102_q log factor   0.9969774      1.0e-10 1.0e+10 kp 1.0 0.0 1
kpkp103_q log factor    1.197941      1.0e-10 1.0e+10 kp 1.0 0.0 1
kpkp104_q log factor   0.9961760      1.0e-10 1.0e+10 kp 1.0 0.0 1
kpkp105_q log factor   0.9719947      1.0e-10 1.0e+10 kp 1.0 0.0 1
kpkp109_q log factor   0.9470932      1.0e-10 1.0e+10 kp 1.0 0.0 1
kpkp110_q log factor   0.6604426      1.0e-10 1.0e+10 kp 1.0 0.0 1
kpkp111_q log factor   0.8647537      1.0e-10 1.0e+10 kp 1.0 0.0 1
kpkp112_q log factor    1.258031      1.0e-10 1.0e+10 kp 1.0 0.0 1
kpkp113_q log factor    1.392711      1.0e-10 1.0e+10 kp 1.0 0.0 1
kpkp114_q log factor   0.4246695      1.0e-10 1.0e+10 kp 1.0 0.0 1
kpkp115_q log factor   0.4344504      1.0e-10 1.0e+10 kp 1.0 0.0 1
kpkp116_q log factor   3.4099795E-02  1.0e-10 1.0e+10 kp 1.0 0.0 1
kpkp117_q log factor   0.9763110      1.0e-10 1.0e+10 kp 1.0 0.0 1
kpkp118_q log factor    1.011762      1.0e-10 1.0e+10 kp 1.0 0.0 1
kpkp119_q log factor    1.162118      1.0e-10 1.0e+10 kp 1.0 0.0 1
kpkp120_q log factor    2.609374      1.0e-10 1.0e+10 kp 1.0 0.0 1
kpkp121_q log factor    3.917862      1.0e-10 1.0e+10 kp 1.0 0.0 1
kpkp127_q log factor   0.8813157      1.0e-10 1.0e+10 kp 1.0 0.0 1
kpkp128_q log factor   0.2761805      1.0e-10 1.0e+10 kp 1.0 0.0 1
kpkp129_q log factor   0.4900627      1.0e-10 1.0e+10 kp 1.0 0.0 1
kpkp130_q log factor   0.3094827      1.0e-10 1.0e+10 kp 1.0 0.0 1
kpkp131_q log factor   0.6663932      1.0e-10 1.0e+10 kp 1.0 0.0 1
kpkp132_q log factor    1.390387      1.0e-10 1.0e+10 kp 1.0 0.0 1
kpkp133_q log factor    1.051293      1.0e-10 1.0e+10 kp 1.0 0.0 1
kpkp134_q log factor    1.063152      1.0e-10 1.0e+10 kp 1.0 0.0 1
kpkp135_q log factor   0.9996315      1.0e-10 1.0e+10 kp 1.0 0.0 1
kpkp136_q log factor    1.000000      1.0e-10 1.0e+10 kp 1.0 0.0 1
kpkp137_q log factor    1.030856      1.0e-10 1.0e+10 kp 1.0 0.0 1
kpkp138_q log factor    2.253283      1.0e-10 1.0e+10 kp 1.0 0.0 1
kpkp145_q log factor    1.350817      1.0e-10 1.0e+10 kp 1.0 0.0 1
kpkp146_q log factor   0.8845949      1.0e-10 1.0e+10 kp 1.0 0.0 1
kpkp147_q log factor   0.4536109      1.0e-10 1.0e+10 kp 1.0 0.0 1
kpkp148_q log factor    1.176892      1.0e-10 1.0e+10 kp 1.0 0.0 1
kpkp149_q log factor    1.518151      1.0e-10 1.0e+10 kp 1.0 0.0 1
kpkp150_q log factor   0.8540463      1.0e-10 1.0e+10 kp 1.0 0.0 1
kpkp151_q log factor    1.076727      1.0e-10 1.0e+10 kp 1.0 0.0 1
kpkp152_q log factor    1.002948      1.0e-10 1.0e+10 kp 1.0 0.0 1
kpkp153_q log factor   0.9996315      1.0e-10 1.0e+10 kp 1.0 0.0 1
kpkp154_q log factor    1.000000      1.0e-10 1.0e+10 kp 1.0 0.0 1
kpkp155_q log factor    1.005094      1.0e-10 1.0e+10 kp 1.0 0.0 1
kpkp163_q log factor    1.027221      1.0e-10 1.0e+10 kp 1.0 0.0 1
kpkp164_q log factor   0.8375535      1.0e-10 1.0e+10 kp 1.0 0.0 1
kpkp165_q log factor    1.232054      1.0e-10 1.0e+10 kp 1.0 0.0 1
kpkp166_q log factor    1.590226      1.0e-10 1.0e+10 kp 1.0 0.0 1
kpkp167_q log factor   0.4858487      1.0e-10 1.0e+10 kp 1.0 0.0 1
kpkp168_q log factor   0.4578641      1.0e-10 1.0e+10 kp 1.0 0.0 1
kpkp169_q log factor   0.3170457      1.0e-10 1.0e+10 kp 1.0 0.0 1
kpkp170_q log factor   0.6919818      1.0e-10 1.0e+10 kp 1.0 0.0 1
kpkp171_q log factor   0.9737638      1.0e-10 1.0e+10 kp 1.0 0.0 1
kpkp172_q log factor   0.9996030      1.0e-10 1.0e+10 kp 1.0 0.0 1
kpkp181_q log factor    1.148178      1.0e-10 1.0e+10 kp 1.0 0.0 1
kpkp182_q log factor    1.833417      1.0e-10 1.0e+10 kp 1.0 0.0 1
kpkp183_q log factor    3.592183      1.0e-10 1.0e+10 kp 1.0 0.0 1
kpkp184_q log factor   0.4934778      1.0e-10 1.0e+10 kp 1.0 0.0 1
kpkp185_q log factor   0.5926551      1.0e-10 1.0e+10 kp 1.0 0.0 1
kpkp186_q log factor    4.278752      1.0e-10 1.0e+10 kp 1.0 0.0 1
kpkp187_q log factor   0.4374747      1.0e-10 1.0e+10 kp 1.0 0.0 1
kpkp188_q log factor    1.436762      1.0e-10 1.0e+10 kp 1.0 0.0 1
kpkp189_q log factor   0.6015180      1.0e-10 1.0e+10 kp 1.0 0.0 1
kpkp190_q log factor   0.9134173      1.0e-10 1.0e+10 kp 1.0 0.0 1
kpkp199_q log factor   0.7115587      1.0e-10 1.0e+10 kp 1.0 0.0 1
kpkp200_q log factor   0.8028696      1.0e-10 1.0e+10 kp 1.0 0.0 1
kpkp201_q log factor   0.4046803      1.0e-10 1.0e+10 kp 1.0 0.0 1
kpkp89_ss3 log factor    2.992658      1.0e-10 1.0e+10 kp 1.0 0.0 1
kpkp90_vl3 log factor    66.50653      1.0e-10 1.0e+10 kp 1.0 0.0 1
kpkp106_ss3 log factor    3.116635      1.0e-10 1.0e+10 kp 1.0 0.0 1
kpkp107_vl3 log factor    24.18571      1.0e-10 1.0e+10 kp 1.0 0.0 1
kpkp108_vl3 log factor    20.50305      1.0e-10 1.0e+10 kp 1.0 0.0 1
kpkp122_ss3 log factor    3.001712      1.0e-10 1.0e+10 kp 1.0 0.0 1
kpkp123_ss3 log factor    2.956815      1.0e-10 1.0e+10 kp 1.0 0.0 1
kpkp124_vl3 log factor    2.197118      1.0e-10 1.0e+10 kp 1.0 0.0 1
kpkp125_vl3 log factor    1.400229      1.0e-10 1.0e+10 kp 1.0 0.0 1
kpkp126_vl3 log factor    50.33474      1.0e-10 1.0e+10 kp 1.0 0.0 1
kpkp139_ss3 log factor    1.928663      1.0e-10 1.0e+10 kp 1.0 0.0 1
kpkp140_vl3 log factor    31.59283      1.0e-10 1.0e+10 kp 1.0 0.0 1
kpkp141_vl3 log factor    15.92918      1.0e-10 1.0e+10 kp 1.0 0.0 1
kpkp142_vl3 log factor    1.659811      1.0e-10 1.0e+10 kp 1.0 0.0 1
kpkp143_vl3 log factor    2.958561      1.0e-10 1.0e+10 kp 1.0 0.0 1
kpkp144_vl3 log factor    23.85703      1.0e-10 1.0e+10 kp 1.0 0.0 1
kpkp156_ss3 log factor   8.4667289E-02  1.0e-10 1.0e+10 kp 1.0 0.0 1
kpkp157_vl3 log factor    7.168536      1.0e-10 1.0e+10 kp 1.0 0.0 1
kpkp158_vl3 log factor    22.65176      1.0e-10 1.0e+10 kp 1.0 0.0 1
kpkp159_vl3 log factor    6.525396      1.0e-10 1.0e+10 kp 1.0 0.0 1
kpkp160_vl3 log factor    6.843742      1.0e-10 1.0e+10 kp 1.0 0.0 1
kpkp161_vl3 log factor    2.351923      1.0e-10 1.0e+10 kp 1.0 0.0 1
kpkp173_ss3 log factor    2.094773      1.0e-10 1.0e+10 kp 1.0 0.0 1
kpkp174_vl3 log factor    6.708862      1.0e-10 1.0e+10 kp 1.0 0.0 1
kpkp175_vl3 log factor    5.625593      1.0e-10 1.0e+10 kp 1.0 0.0 1
kpkp176_vl3 log factor    5.113059      1.0e-10 1.0e+10 kp 1.0 0.0 1
kpkp177_vl3 log factor    4.797018      1.0e-10 1.0e+10 kp 1.0 0.0 1
kpkp191_ss3 log factor    2.846804      1.0e-10 1.0e+10 kp 1.0 0.0 1
kpkp192_vl3 log factor    14.67146      1.0e-10 1.0e+10 kp 1.0 0.0 1
kpkp193_vl3 log factor    4.659388      1.0e-10 1.0e+10 kp 1.0 0.0 1
kpkp202_ss3 log factor    5.695898      1.0e-10 1.0e+10 kp 1.0 0.0 1
kpkp203_ss3 log factor    1.309110      1.0e-10 1.0e+10 kp 1.0 0.0 1
kpkp204_vl3 log factor    16.89259      1.0e-10 1.0e+10 kp 1.0 0.0 1
kpkp205_ss3 log factor   0.6041094      1.0e-10 1.0e+10 kp 1.0 0.0 1
kpkp206_ss3 log factor    1.247951      1.0e-10 1.0e+10 kp 1.0 0.0 1
kpkp207_ss3 log factor    1.980463      1.0e-10 1.0e+10 kp 1.0 0.0 1
kpkp208_ss3 log factor    2.712653      1.0e-10 1.0e+10 kp 1.0 0.0 1
kpkp209_vl3 log factor    1.955239      1.0e-10 1.0e+10 kp 1.0 0.0 1
kpkp217_vl3 log factor    16.08797      1.0e-10 1.0e+10 kp 1.0 0.0 1
kpkp218_vl3 log factor    14.75597      1.0e-10 1.0e+10 kp 1.0 0.0 1
kpkp219_ss3 log factor    5.657510      1.0e-10 1.0e+10 kp 1.0 0.0 1
kpkp220_vl3 log factor   0.8898714      1.0e-10 1.0e+10 kp 1.0 0.0 1
kpkp221_vl3 log factor    4.032219      1.0e-10 1.0e+10 kp 1.0 0.0 1
kpkp222_vl3 log factor    4.738726      1.0e-10 1.0e+10 kp 1.0 0.0 1
kpkp223_vl3 log factor   0.4625444      1.0e-10 1.0e+10 kp 1.0 0.0 1
kpkp224_vl3 log factor    2.972666      1.0e-10 1.0e+10 kp 1.0 0.0 1
kpkp225_vl3 log factor   0.8852284      1.0e-10 1.0e+10 kp 1.0 0.0 1
kpkp235_vl3 log factor    122.3574      1.0e-10 1.0e+10 kp 1.0 0.0 1
kpkp236_vl3 log factor    12.83811      1.0e-10 1.0e+10 kp 1.0 0.0 1
kpkp237_vl3 log factor    5.058676      1.0e-10 1.0e+10 kp 1.0 0.0 1
kpkp238_vl3 log factor    2.492165      1.0e-10 1.0e+10 kp 1.0 0.0 1
kpkp239_vl3 log factor    4.606225      1.0e-10 1.0e+10 kp 1.0 0.0 1
kpkp240_vl3 log factor    2.925028      1.0e-10 1.0e+10 kp 1.0 0.0 1
kpkp253_vl3 log factor    4.120844      1.0e-10 1.0e+10 kp 1.0 0.0 1
kpkp255_vl3 log factor    2.706061      1.0e-10 1.0e+10 kp 1.0 0.0 1
kpkp256_vl3 log factor    1.606725      1.0e-10 1.0e+10 kp 1.0 0.0 1
kpkp162_vl3 log factor    25.15310      1.0e-10 1.0e+10 kp 1.0 0.0 1
kpkp178_vl3 log factor    5.634571      1.0e-10 1.0e+10 kp 1.0 0.0 1
kpkp179_vl3 log factor    9.674910      1.0e-10 1.0e+10 kp 1.0 0.0 1
kpkp194_vl3 log factor    7.255449      1.0e-10 1.0e+10 kp 1.0 0.0 1
kpkp195_vl3 log factor    7.400404      1.0e-10 1.0e+10 kp 1.0 0.0 1
kpkp196_ty3 log factor    2.512937      1.0e-10 1.0e+10 kp 1.0 0.0 1
kpkp210_vl3 log factor    1.428646      1.0e-10 1.0e+10 kp 1.0 0.0 1
kpkp211_vl3 log factor    5.687053      1.0e-10 1.0e+10 kp 1.0 0.0 1
kpkp212_ty3 log factor    16.63741      1.0e-10 1.0e+10 kp 1.0 0.0 1
kpkp226_vl3 log factor    1542.846      1.0e-10 1.0e+10 kp 1.0 0.0 1
kpkp227_ty3 log factor   4.1913378E-02  1.0e-10 1.0e+10 kp 1.0 0.0 1
kpkp228_ty3 log factor   0.2710132      1.0e-10 1.0e+10 kp 1.0 0.0 1
kpkp241_vl3 log factor    4.825479      1.0e-10 1.0e+10 kp 1.0 0.0 1
kpkp242_vl3 log factor    3.873052      1.0e-10 1.0e+10 kp 1.0 0.0 1
kpkp243_ty3 log factor   0.7145743      1.0e-10 1.0e+10 kp 1.0 0.0 1
kpkp180_ty3 log factor   0.3737834      1.0e-10 1.0e+10 kp 1.0 0.0 1
kpkp197_ty3 log factor    2.888169      1.0e-10 1.0e+10 kp 1.0 0.0 1
kpkp198_ar3 log factor    7.288406      1.0e-10 1.0e+10 kp 1.0 0.0 1
kpkp213_ty3 log factor    2.877800      1.0e-10 1.0e+10 kp 1.0 0.0 1
kpkp215_ar3 log factor    1.021447      1.0e-10 1.0e+10 kp 1.0 0.0 1
kpkp216_ar3 log factor    7.717787      1.0e-10 1.0e+10 kp 1.0 0.0 1
kpkp229_ty3 log factor    2.712841      1.0e-10 1.0e+10 kp 1.0 0.0 1
kpkp231_ar3 log factor    1.239437      1.0e-10 1.0e+10 kp 1.0 0.0 1
kpkp232_ar3 log factor    92.05859      1.0e-10 1.0e+10 kp 1.0 0.0 1
kpkp233_ar3 log factor    1.197086      1.0e-10 1.0e+10 kp 1.0 0.0 1
kpkp234_ar3 log factor    8.139183      1.0e-10 1.0e+10 kp 1.0 0.0 1
kpkp245_ty3 log factor    24.15739      1.0e-10 1.0e+10 kp 1.0 0.0 1
kpkp247_ar3 log factor    26.02027      1.0e-10 1.0e+10 kp 1.0 0.0 1
kpkp248_ar3 log factor    5.258805      1.0e-10 1.0e+10 kp 1.0 0.0 1
kpkp249_ar3 log factor    2.568543      1.0e-10 1.0e+10 kp 1.0 0.0 1
kpkp250_ar3 log factor    1.473705      1.0e-10 1.0e+10 kp 1.0 0.0 1
kpkp251_ar3 log factor    2.726222      1.0e-10 1.0e+10 kp 1.0 0.0 1
kpkp252_ar3 log factor    7.533071      1.0e-10 1.0e+10 kp 1.0 0.0 1
kpkp254_vl3 log factor   0.5850314      1.0e-10 1.0e+10 kp 1.0 0.0 1
kpkp257_vl3 log factor    2.278714      1.0e-10 1.0e+10 kp 1.0 0.0 1
kpkp258_iw3 log factor    10.32181      1.0e-10 1.0e+10 kp 1.0 0.0 1
kpkp260_ar3 log factor    8.604683      1.0e-10 1.0e+10 kp 1.0 0.0 1
kpkp261_ar3 log factor    43.12265      1.0e-10 1.0e+10 kp 1.0 0.0 1
kpkp262_ar3 log factor    5.460485      1.0e-10 1.0e+10 kp 1.0 0.0 1
kpkp263_ar3 log factor    13.94731      1.0e-10 1.0e+10 kp 1.0 0.0 1
kpkp264_ar3 log factor    12.78692      1.0e-10 1.0e+10 kp 1.0 0.0 1
kpkp265_ar3 log factor    16.13036      1.0e-10 1.0e+10 kp 1.0 0.0 1
kpkp266_ar3 log factor    12.91538      1.0e-10 1.0e+10 kp 1.0 0.0 1
kpkp267_ar3 log factor    4.931745      1.0e-10 1.0e+10 kp 1.0 0.0 1
kpkp268_ar3 log factor    8.966845      1.0e-10 1.0e+10 kp 1.0 0.0 1
kpkp269_ar3 log factor    6.370283      1.0e-10 1.0e+10 kp 1.0 0.0 1