pcf
* control data
restart pareto
    300  18425      1      0      7  
    1    3 double point  1    0  0
   20.000       -3.0000      0.3  0.03  -10     999  lamforgive
      0.100  10.0  0.001
 0.1      1
    50  0.005  4  4  0.005  4
1  1  1  1 nojcosaveitn reisaveitn
* singular value decomposition
     1
   300  5.0000000E-07
     1
* svd assist
badriver_pareto.pst
badriver_pareto.jco
    1    2    0    1    1
* parameter groups
 pargp absolute    0.015  0.0  always_2  2.0 parabolic
* parameter data
par1         none  relative   10.000     1.0e-20  1.0e20  pargp  1.0  -10.000      1
par2         none  relative   10.000     1.0e-20  1.0e20  pargp  1.0  -10.000      1
par3         none  relative   10.000     1.0e-20  1.0e20  pargp  1.0  -10.000      1
par4         none  relative   10.000     1.0e-20  1.0e20  pargp  1.0  -10.000      1
par5         none  relative   10.000     1.0e-20  1.0e20  pargp  1.0  -10.000      1
par6         none  relative   10.000     1.0e-20  1.0e20  pargp  1.0  -10.000      1
par7         none  relative   10.000     1.0e-20  1.0e20  pargp  1.0  -10.000      1
par8         none  relative   10.000     1.0e-20  1.0e20  pargp  1.0  -10.000      1
par9         none  relative   10.000     1.0e-20  1.0e20  pargp  1.0  -10.000      1
par10        none  relative   10.000     1.0e-20  1.0e20  pargp  1.0  -10.000      1
par11        none  relative   10.000     1.0e-20  1.0e20  pargp  1.0  -10.000      1
par12        none  relative   10.000     1.0e-20  1.0e20  pargp  1.0  -10.000      1
par13        none  relative   10.000     1.0e-20  1.0e20  pargp  1.0  -10.000      1
par14        none  relative   10.000     1.0e-20  1.0e20  pargp  1.0  -10.000      1
par15        none  relative   10.000     1.0e-20  1.0e20  pargp  1.0  -10.000      1
par16        none  relative   10.000     1.0e-20  1.0e20  pargp  1.0  -10.000      1
par17        none  relative   10.000     1.0e-20  1.0e20  pargp  1.0  -10.000      1
par18        none  relative   10.000     1.0e-20  1.0e20  pargp  1.0  -10.000      1
par19        none  relative   10.000     1.0e-20  1.0e20  pargp  1.0  -10.000      1
par20        none  relative   10.000     1.0e-20  1.0e20  pargp  1.0  -10.000      1
par21        none  relative   10.000     1.0e-20  1.0e20  pargp  1.0  -10.000      1
par22        none  relative   10.000     1.0e-20  1.0e20  pargp  1.0  -10.000      1
par23        none  relative   10.000     1.0e-20  1.0e20  pargp  1.0  -10.000      1
par24        none  relative   10.000     1.0e-20  1.0e20  pargp  1.0  -10.000      1
par25        none  relative   10.000     1.0e-20  1.0e20  pargp  1.0  -10.000      1
par26        none  relative   10.000     1.0e-20  1.0e20  pargp  1.0  -10.000      1
par27        none  relative   10.000     1.0e-20  1.0e20  pargp  1.0  -10.000      1
par28        none  relative   10.000     1.0e-20  1.0e20  pargp  1.0  -10.000      1
par29        none  relative   10.000     1.0e-20  1.0e20  pargp  1.0  -10.000      1
par30        none  relative   10.000     1.0e-20  1.0e20  pargp  1.0  -10.000      1
par31        none  relative   10.000     1.0e-20  1.0e20  pargp  1.0  -10.000      1
par32        none  relative   10.000     1.0e-20  1.0e20  pargp  1.0  -10.000      1
par33        none  relative   10.000     1.0e-20  1.0e20  pargp  1.0  -10.000      1
par34        none  relative   10.000     1.0e-20  1.0e20  pargp  1.0  -10.000      1
par35        none  relative   10.000     1.0e-20  1.0e20  pargp  1.0  -10.000      1
par36        none  relative   10.000     1.0e-20  1.0e20  pargp  1.0  -10.000      1
par37        none  relative   10.000     1.0e-20  1.0e20  pargp  1.0  -10.000      1
par38        none  relative   10.000     1.0e-20  1.0e20  pargp  1.0  -10.000      1
par39        none  relative   10.000     1.0e-20  1.0e20  pargp  1.0  -10.000      1
par40        none  relative   10.000     1.0e-20  1.0e20  pargp  1.0  -10.000      1
par41        none  relative   10.000     1.0e-20  1.0e20  pargp  1.0  -10.000      1
par42        none  relative   10.000     1.0e-20  1.0e20  pargp  1.0  -10.000      1
par43        none  relative   10.000     1.0e-20  1.0e20  pargp  1.0  -10.000      1
par44        none  relative   10.000     1.0e-20  1.0e20  pargp  1.0  -10.000      1
par45        none  relative   10.000     1.0e-20  1.0e20  pargp  1.0  -10.000      1
par46        none  relative   10.000     1.0e-20  1.0e20  pargp  1.0  -10.000      1
par47        none  relative   10.000     1.0e-20  1.0e20  pargp  1.0  -10.000      1
par48        none  relative   10.000     1.0e-20  1.0e20  pargp  1.0  -10.000      1
par49        none  relative   10.000     1.0e-20  1.0e20  pargp  1.0  -10.000      1
par50        none  relative   10.000     1.0e-20  1.0e20  pargp  1.0  -10.000      1
par51        none  relative   10.000     1.0e-20  1.0e20  pargp  1.0  -10.000      1
par52        none  relative   10.000     1.0e-20  1.0e20  pargp  1.0  -10.000      1
par53        none  relative   10.000     1.0e-20  1.0e20  pargp  1.0  -10.000      1
par54        none  relative   10.000     1.0e-20  1.0e20  pargp  1.0  -10.000      1
par55        none  relative   10.000     1.0e-20  1.0e20  pargp  1.0  -10.000      1
par56        none  relative   10.000     1.0e-20  1.0e20  pargp  1.0  -10.000      1
par57        none  relative   10.000     1.0e-20  1.0e20  pargp  1.0  -10.000      1
par58        none  relative   10.000     1.0e-20  1.0e20  pargp  1.0  -10.000      1
par59        none  relative   10.000     1.0e-20  1.0e20  pargp  1.0  -10.000      1
par60        none  relative   10.000     1.0e-20  1.0e20  pargp  1.0  -10.000      1
par61        none  relative   10.000     1.0e-20  1.0e20  pargp  1.0  -10.000      1
par62        none  relative   10.000     1.0e-20  1.0e20  pargp  1.0  -10.000      1
par63        none  relative   10.000     1.0e-20  1.0e20  pargp  1.0  -10.000      1
par64        none  relative   10.000     1.0e-20  1.0e20  pargp  1.0  -10.000      1
par65        none  relative   10.000     1.0e-20  1.0e20  pargp  1.0  -10.000      1
par66        none  relative   10.000     1.0e-20  1.0e20  pargp  1.0  -10.000      1
par67        none  relative   10.000     1.0e-20  1.0e20  pargp  1.0  -10.000      1
par68        none  relative   10.000     1.0e-20  1.0e20  pargp  1.0  -10.000      1
par69        none  relative   10.000     1.0e-20  1.0e20  pargp  1.0  -10.000      1
par70        none  relative   10.000     1.0e-20  1.0e20  pargp  1.0  -10.000      1
par71        none  relative   10.000     1.0e-20  1.0e20  pargp  1.0  -10.000      1
par72        none  relative   10.000     1.0e-20  1.0e20  pargp  1.0  -10.000      1
par73        none  relative   10.000     1.0e-20  1.0e20  pargp  1.0  -10.000      1
par74        none  relative   10.000     1.0e-20  1.0e20  pargp  1.0  -10.000      1
par75        none  relative   10.000     1.0e-20  1.0e20  pargp  1.0  -10.000      1
par76        none  relative   10.000     1.0e-20  1.0e20  pargp  1.0  -10.000      1
par77        none  relative   10.000     1.0e-20  1.0e20  pargp  1.0  -10.000      1
par78        none  relative   10.000     1.0e-20  1.0e20  pargp  1.0  -10.000      1
par79        none  relative   10.000     1.0e-20  1.0e20  pargp  1.0  -10.000      1
par80        none  relative   10.000     1.0e-20  1.0e20  pargp  1.0  -10.000      1
par81        none  relative   10.000     1.0e-20  1.0e20  pargp  1.0  -10.000      1
par82        none  relative   10.000     1.0e-20  1.0e20  pargp  1.0  -10.000      1
par83        none  relative   10.000     1.0e-20  1.0e20  pargp  1.0  -10.000      1
par84        none  relative   10.000     1.0e-20  1.0e20  pargp  1.0  -10.000      1
par85        none  relative   10.000     1.0e-20  1.0e20  pargp  1.0  -10.000      1
par86        none  relative   10.000     1.0e-20  1.0e20  pargp  1.0  -10.000      1
par87        none  relative   10.000     1.0e-20  1.0e20  pargp  1.0  -10.000      1
par88        none  relative   10.000     1.0e-20  1.0e20  pargp  1.0  -10.000      1
par89        none  relative   10.000     1.0e-20  1.0e20  pargp  1.0  -10.000      1
par90        none  relative   10.000     1.0e-20  1.0e20  pargp  1.0  -10.000      1
par91        none  relative   10.000     1.0e-20  1.0e20  pargp  1.0  -10.000      1
par92        none  relative   10.000     1.0e-20  1.0e20  pargp  1.0  -10.000      1
par93        none  relative   10.000     1.0e-20  1.0e20  pargp  1.0  -10.000      1
par94        none  relative   10.000     1.0e-20  1.0e20  pargp  1.0  -10.000      1
par95        none  relative   10.000     1.0e-20  1.0e20  pargp  1.0  -10.000      1
par96        none  relative   10.000     1.0e-20  1.0e20  pargp  1.0  -10.000      1
par97        none  relative   10.000     1.0e-20  1.0e20  pargp  1.0  -10.000      1
par98        none  relative   10.000     1.0e-20  1.0e20  pargp  1.0  -10.000      1
par99        none  relative   10.000     1.0e-20  1.0e20  pargp  1.0  -10.000      1
par100       none  relative   10.000     1.0e-20  1.0e20  pargp  1.0  -10.000      1
par101       none  relative   10.000     1.0e-20  1.0e20  pargp  1.0  -10.000      1
par102       none  relative   10.000     1.0e-20  1.0e20  pargp  1.0  -10.000      1
par103       none  relative   10.000     1.0e-20  1.0e20  pargp  1.0  -10.000      1
par104       none  relative   10.000     1.0e-20  1.0e20  pargp  1.0  -10.000      1
par105       none  relative   10.000     1.0e-20  1.0e20  pargp  1.0  -10.000      1
par106       none  relative   10.000     1.0e-20  1.0e20  pargp  1.0  -10.000      1
par107       none  relative   10.000     1.0e-20  1.0e20  pargp  1.0  -10.000      1
par108       none  relative   10.000     1.0e-20  1.0e20  pargp  1.0  -10.000      1
par109       none  relative   10.000     1.0e-20  1.0e20  pargp  1.0  -10.000      1
par110       none  relative   10.000     1.0e-20  1.0e20  pargp  1.0  -10.000      1
par111       none  relative   10.000     1.0e-20  1.0e20  pargp  1.0  -10.000      1
par112       none  relative   10.000     1.0e-20  1.0e20  pargp  1.0  -10.000      1
par113       none  relative   10.000     1.0e-20  1.0e20  pargp  1.0  -10.000      1
par114       none  relative   10.000     1.0e-20  1.0e20  pargp  1.0  -10.000      1
par115       none  relative   10.000     1.0e-20  1.0e20  pargp  1.0  -10.000      1
par116       none  relative   10.000     1.0e-20  1.0e20  pargp  1.0  -10.000      1
par117       none  relative   10.000     1.0e-20  1.0e20  pargp  1.0  -10.000      1
par118       none  relative   10.000     1.0e-20  1.0e20  pargp  1.0  -10.000      1
par119       none  relative   10.000     1.0e-20  1.0e20  pargp  1.0  -10.000      1
par120       none  relative   10.000     1.0e-20  1.0e20  pargp  1.0  -10.000      1
par121       none  relative   10.000     1.0e-20  1.0e20  pargp  1.0  -10.000      1
par122       none  relative   10.000     1.0e-20  1.0e20  pargp  1.0  -10.000      1
par123       none  relative   10.000     1.0e-20  1.0e20  pargp  1.0  -10.000      1
par124       none  relative   10.000     1.0e-20  1.0e20  pargp  1.0  -10.000      1
par125       none  relative   10.000     1.0e-20  1.0e20  pargp  1.0  -10.000      1
par126       none  relative   10.000     1.0e-20  1.0e20  pargp  1.0  -10.000      1
par127       none  relative   10.000     1.0e-20  1.0e20  pargp  1.0  -10.000      1
par128       none  relative   10.000     1.0e-20  1.0e20  pargp  1.0  -10.000      1
par129       none  relative   10.000     1.0e-20  1.0e20  pargp  1.0  -10.000      1
par130       none  relative   10.000     1.0e-20  1.0e20  pargp  1.0  -10.000      1
par131       none  relative   10.000     1.0e-20  1.0e20  pargp  1.0  -10.000      1
par132       none  relative   10.000     1.0e-20  1.0e20  pargp  1.0  -10.000      1
par133       none  relative   10.000     1.0e-20  1.0e20  pargp  1.0  -10.000      1
par134       none  relative   10.000     1.0e-20  1.0e20  pargp  1.0  -10.000      1
par135       none  relative   10.000     1.0e-20  1.0e20  pargp  1.0  -10.000      1
par136       none  relative   10.000     1.0e-20  1.0e20  pargp  1.0  -10.000      1
par137       none  relative   10.000     1.0e-20  1.0e20  pargp  1.0  -10.000      1
par138       none  relative   10.000     1.0e-20  1.0e20  pargp  1.0  -10.000      1
par139       none  relative   10.000     1.0e-20  1.0e20  pargp  1.0  -10.000      1
par140       none  relative   10.000     1.0e-20  1.0e20  pargp  1.0  -10.000      1
par141       none  relative   10.000     1.0e-20  1.0e20  pargp  1.0  -10.000      1
par142       none  relative   10.000     1.0e-20  1.0e20  pargp  1.0  -10.000      1
par143       none  relative   10.000     1.0e-20  1.0e20  pargp  1.0  -10.000      1
par144       none  relative   10.000     1.0e-20  1.0e20  pargp  1.0  -10.000      1
par145       none  relative   10.000     1.0e-20  1.0e20  pargp  1.0  -10.000      1
par146       none  relative   10.000     1.0e-20  1.0e20  pargp  1.0  -10.000      1
par147       none  relative   10.000     1.0e-20  1.0e20  pargp  1.0  -10.000      1
par148       none  relative   10.000     1.0e-20  1.0e20  pargp  1.0  -10.000      1
par149       none  relative   10.000     1.0e-20  1.0e20  pargp  1.0  -10.000      1
par150       none  relative   10.000     1.0e-20  1.0e20  pargp  1.0  -10.000      1
par151       none  relative   10.000     1.0e-20  1.0e20  pargp  1.0  -10.000      1
par152       none  relative   10.000     1.0e-20  1.0e20  pargp  1.0  -10.000      1
par153       none  relative   10.000     1.0e-20  1.0e20  pargp  1.0  -10.000      1
par154       none  relative   10.000     1.0e-20  1.0e20  pargp  1.0  -10.000      1
par155       none  relative   10.000     1.0e-20  1.0e20  pargp  1.0  -10.000      1
par156       none  relative   10.000     1.0e-20  1.0e20  pargp  1.0  -10.000      1
par157       none  relative   10.000     1.0e-20  1.0e20  pargp  1.0  -10.000      1
par158       none  relative   10.000     1.0e-20  1.0e20  pargp  1.0  -10.000      1
par159       none  relative   10.000     1.0e-20  1.0e20  pargp  1.0  -10.000      1
par160       none  relative   10.000     1.0e-20  1.0e20  pargp  1.0  -10.000      1
par161       none  relative   10.000     1.0e-20  1.0e20  pargp  1.0  -10.000      1
par162       none  relative   10.000     1.0e-20  1.0e20  pargp  1.0  -10.000      1
par163       none  relative   10.000     1.0e-20  1.0e20  pargp  1.0  -10.000      1
par164       none  relative   10.000     1.0e-20  1.0e20  pargp  1.0  -10.000      1
par165       none  relative   10.000     1.0e-20  1.0e20  pargp  1.0  -10.000      1
par166       none  relative   10.000     1.0e-20  1.0e20  pargp  1.0  -10.000      1
par167       none  relative   10.000     1.0e-20  1.0e20  pargp  1.0  -10.000      1
par168       none  relative   10.000     1.0e-20  1.0e20  pargp  1.0  -10.000      1
par169       none  relative   10.000     1.0e-20  1.0e20  pargp  1.0  -10.000      1
par170       none  relative   10.000     1.0e-20  1.0e20  pargp  1.0  -10.000      1
par171       none  relative   10.000     1.0e-20  1.0e20  pargp  1.0  -10.000      1
par172       none  relative   10.000     1.0e-20  1.0e20  pargp  1.0  -10.000      1
par173       none  relative   10.000     1.0e-20  1.0e20  pargp  1.0  -10.000      1
par174       none  relative   10.000     1.0e-20  1.0e20  pargp  1.0  -10.000      1
par175       none  relative   10.000     1.0e-20  1.0e20  pargp  1.0  -10.000      1
par176       none  relative   10.000     1.0e-20  1.0e20  pargp  1.0  -10.000      1
par177       none  relative   10.000     1.0e-20  1.0e20  pargp  1.0  -10.000      1
par178       none  relative   10.000     1.0e-20  1.0e20  pargp  1.0  -10.000      1
par179       none  relative   10.000     1.0e-20  1.0e20  pargp  1.0  -10.000      1
par180       none  relative   10.000     1.0e-20  1.0e20  pargp  1.0  -10.000      1
par181       none  relative   10.000     1.0e-20  1.0e20  pargp  1.0  -10.000      1
par182       none  relative   10.000     1.0e-20  1.0e20  pargp  1.0  -10.000      1
par183       none  relative   10.000     1.0e-20  1.0e20  pargp  1.0  -10.000      1
par184       none  relative   10.000     1.0e-20  1.0e20  pargp  1.0  -10.000      1
par185       none  relative   10.000     1.0e-20  1.0e20  pargp  1.0  -10.000      1
par186       none  relative   10.000     1.0e-20  1.0e20  pargp  1.0  -10.000      1
par187       none  relative   10.000     1.0e-20  1.0e20  pargp  1.0  -10.000      1
par188       none  relative   10.000     1.0e-20  1.0e20  pargp  1.0  -10.000      1
par189       none  relative   10.000     1.0e-20  1.0e20  pargp  1.0  -10.000      1
par190       none  relative   10.000     1.0e-20  1.0e20  pargp  1.0  -10.000      1
par191       none  relative   10.000     1.0e-20  1.0e20  pargp  1.0  -10.000      1
par192       none  relative   10.000     1.0e-20  1.0e20  pargp  1.0  -10.000      1
par193       none  relative   10.000     1.0e-20  1.0e20  pargp  1.0  -10.000      1
par194       none  relative   10.000     1.0e-20  1.0e20  pargp  1.0  -10.000      1
par195       none  relative   10.000     1.0e-20  1.0e20  pargp  1.0  -10.000      1
par196       none  relative   10.000     1.0e-20  1.0e20  pargp  1.0  -10.000      1
par197       none  relative   10.000     1.0e-20  1.0e20  pargp  1.0  -10.000      1
par198       none  relative   10.000     1.0e-20  1.0e20  pargp  1.0  -10.000      1
par199       none  relative   10.000     1.0e-20  1.0e20  pargp  1.0  -10.000      1
par200       none  relative   10.000     1.0e-20  1.0e20  pargp  1.0  -10.000      1
par201       none  relative   10.000     1.0e-20  1.0e20  pargp  1.0  -10.000      1
par202       none  relative   10.000     1.0e-20  1.0e20  pargp  1.0  -10.000      1
par203       none  relative   10.000     1.0e-20  1.0e20  pargp  1.0  -10.000      1
par204       none  relative   10.000     1.0e-20  1.0e20  pargp  1.0  -10.000      1
par205       none  relative   10.000     1.0e-20  1.0e20  pargp  1.0  -10.000      1
par206       none  relative   10.000     1.0e-20  1.0e20  pargp  1.0  -10.000      1
par207       none  relative   10.000     1.0e-20  1.0e20  pargp  1.0  -10.000      1
par208       none  relative   10.000     1.0e-20  1.0e20  pargp  1.0  -10.000      1
par209       none  relative   10.000     1.0e-20  1.0e20  pargp  1.0  -10.000      1
par210       none  relative   10.000     1.0e-20  1.0e20  pargp  1.0  -10.000      1
par211       none  relative   10.000     1.0e-20  1.0e20  pargp  1.0  -10.000      1
par212       none  relative   10.000     1.0e-20  1.0e20  pargp  1.0  -10.000      1
par213       none  relative   10.000     1.0e-20  1.0e20  pargp  1.0  -10.000      1
par214       none  relative   10.000     1.0e-20  1.0e20  pargp  1.0  -10.000      1
par215       none  relative   10.000     1.0e-20  1.0e20  pargp  1.0  -10.000      1
par216       none  relative   10.000     1.0e-20  1.0e20  pargp  1.0  -10.000      1
par217       none  relative   10.000     1.0e-20  1.0e20  pargp  1.0  -10.000      1
par218       none  relative   10.000     1.0e-20  1.0e20  pargp  1.0  -10.000      1
par219       none  relative   10.000     1.0e-20  1.0e20  pargp  1.0  -10.000      1
par220       none  relative   10.000     1.0e-20  1.0e20  pargp  1.0  -10.000      1
par221       none  relative   10.000     1.0e-20  1.0e20  pargp  1.0  -10.000      1
par222       none  relative   10.000     1.0e-20  1.0e20  pargp  1.0  -10.000      1
par223       none  relative   10.000     1.0e-20  1.0e20  pargp  1.0  -10.000      1
par224       none  relative   10.000     1.0e-20  1.0e20  pargp  1.0  -10.000      1
par225       none  relative   10.000     1.0e-20  1.0e20  pargp  1.0  -10.000      1
par226       none  relative   10.000     1.0e-20  1.0e20  pargp  1.0  -10.000      1
par227       none  relative   10.000     1.0e-20  1.0e20  pargp  1.0  -10.000      1
par228       none  relative   10.000     1.0e-20  1.0e20  pargp  1.0  -10.000      1
par229       none  relative   10.000     1.0e-20  1.0e20  pargp  1.0  -10.000      1
par230       none  relative   10.000     1.0e-20  1.0e20  pargp  1.0  -10.000      1
par231       none  relative   10.000     1.0e-20  1.0e20  pargp  1.0  -10.000      1
par232       none  relative   10.000     1.0e-20  1.0e20  pargp  1.0  -10.000      1
par233       none  relative   10.000     1.0e-20  1.0e20  pargp  1.0  -10.000      1
par234       none  relative   10.000     1.0e-20  1.0e20  pargp  1.0  -10.000      1
par235       none  relative   10.000     1.0e-20  1.0e20  pargp  1.0  -10.000      1
par236       none  relative   10.000     1.0e-20  1.0e20  pargp  1.0  -10.000      1
par237       none  relative   10.000     1.0e-20  1.0e20  pargp  1.0  -10.000      1
par238       none  relative   10.000     1.0e-20  1.0e20  pargp  1.0  -10.000      1
par239       none  relative   10.000     1.0e-20  1.0e20  pargp  1.0  -10.000      1
par240       none  relative   10.000     1.0e-20  1.0e20  pargp  1.0  -10.000      1
par241       none  relative   10.000     1.0e-20  1.0e20  pargp  1.0  -10.000      1
par242       none  relative   10.000     1.0e-20  1.0e20  pargp  1.0  -10.000      1
par243       none  relative   10.000     1.0e-20  1.0e20  pargp  1.0  -10.000      1
par244       none  relative   10.000     1.0e-20  1.0e20  pargp  1.0  -10.000      1
par245       none  relative   10.000     1.0e-20  1.0e20  pargp  1.0  -10.000      1
par246       none  relative   10.000     1.0e-20  1.0e20  pargp  1.0  -10.000      1
par247       none  relative   10.000     1.0e-20  1.0e20  pargp  1.0  -10.000      1
par248       none  relative   10.000     1.0e-20  1.0e20  pargp  1.0  -10.000      1
par249       none  relative   10.000     1.0e-20  1.0e20  pargp  1.0  -10.000      1
par250       none  relative   10.000     1.0e-20  1.0e20  pargp  1.0  -10.000      1
par251       none  relative   10.000     1.0e-20  1.0e20  pargp  1.0  -10.000      1
par252       none  relative   10.000     1.0e-20  1.0e20  pargp  1.0  -10.000      1
par253       none  relative   10.000     1.0e-20  1.0e20  pargp  1.0  -10.000      1
par254       none  relative   10.000     1.0e-20  1.0e20  pargp  1.0  -10.000      1
par255       none  relative   10.000     1.0e-20  1.0e20  pargp  1.0  -10.000      1
par256       none  relative   10.000     1.0e-20  1.0e20  pargp  1.0  -10.000      1
par257       none  relative   10.000     1.0e-20  1.0e20  pargp  1.0  -10.000      1
par258       none  relative   10.000     1.0e-20  1.0e20  pargp  1.0  -10.000      1
par259       none  relative   10.000     1.0e-20  1.0e20  pargp  1.0  -10.000      1
par260       none  relative   10.000     1.0e-20  1.0e20  pargp  1.0  -10.000      1
par261       none  relative   10.000     1.0e-20  1.0e20  pargp  1.0  -10.000      1
par262       none  relative   10.000     1.0e-20  1.0e20  pargp  1.0  -10.000      1
par263       none  relative   10.000     1.0e-20  1.0e20  pargp  1.0  -10.000      1
par264       none  relative   10.000     1.0e-20  1.0e20  pargp  1.0  -10.000      1
par265       none  relative   10.000     1.0e-20  1.0e20  pargp  1.0  -10.000      1
par266       none  relative   10.000     1.0e-20  1.0e20  pargp  1.0  -10.000      1
par267       none  relative   10.000     1.0e-20  1.0e20  pargp  1.0  -10.000      1
par268       none  relative   10.000     1.0e-20  1.0e20  pargp  1.0  -10.000      1
par269       none  relative   10.000     1.0e-20  1.0e20  pargp  1.0  -10.000      1
par270       none  relative   10.000     1.0e-20  1.0e20  pargp  1.0  -10.000      1
par271       none  relative   10.000     1.0e-20  1.0e20  pargp  1.0  -10.000      1
par272       none  relative   10.000     1.0e-20  1.0e20  pargp  1.0  -10.000      1
par273       none  relative   10.000     1.0e-20  1.0e20  pargp  1.0  -10.000      1
par274       none  relative   10.000     1.0e-20  1.0e20  pargp  1.0  -10.000      1
par275       none  relative   10.000     1.0e-20  1.0e20  pargp  1.0  -10.000      1
par276       none  relative   10.000     1.0e-20  1.0e20  pargp  1.0  -10.000      1
par277       none  relative   10.000     1.0e-20  1.0e20  pargp  1.0  -10.000      1
par278       none  relative   10.000     1.0e-20  1.0e20  pargp  1.0  -10.000      1
par279       none  relative   10.000     1.0e-20  1.0e20  pargp  1.0  -10.000      1
par280       none  relative   10.000     1.0e-20  1.0e20  pargp  1.0  -10.000      1
par281       none  relative   10.000     1.0e-20  1.0e20  pargp  1.0  -10.000      1
par282       none  relative   10.000     1.0e-20  1.0e20  pargp  1.0  -10.000      1
par283       none  relative   10.000     1.0e-20  1.0e20  pargp  1.0  -10.000      1
par284       none  relative   10.000     1.0e-20  1.0e20  pargp  1.0  -10.000      1
par285       none  relative   10.000     1.0e-20  1.0e20  pargp  1.0  -10.000      1
par286       none  relative   10.000     1.0e-20  1.0e20  pargp  1.0  -10.000      1
par287       none  relative   10.000     1.0e-20  1.0e20  pargp  1.0  -10.000      1
par288       none  relative   10.000     1.0e-20  1.0e20  pargp  1.0  -10.000      1
par289       none  relative   10.000     1.0e-20  1.0e20  pargp  1.0  -10.000      1
par290       none  relative   10.000     1.0e-20  1.0e20  pargp  1.0  -10.000      1
par291       none  relative   10.000     1.0e-20  1.0e20  pargp  1.0  -10.000      1
par292       none  relative   10.000     1.0e-20  1.0e20  pargp  1.0  -10.000      1
par293       none  relative   10.000     1.0e-20  1.0e20  pargp  1.0  -10.000      1
par294       none  relative   10.000     1.0e-20  1.0e20  pargp  1.0  -10.000      1
par295       none  relative   10.000     1.0e-20  1.0e20  pargp  1.0  -10.000      1
par296       none  relative   10.000     1.0e-20  1.0e20  pargp  1.0  -10.000      1
par297       none  relative   10.000     1.0e-20  1.0e20  pargp  1.0  -10.000      1
par298       none  relative   10.000     1.0e-20  1.0e20  pargp  1.0  -10.000      1
par299       none  relative   10.000     1.0e-20  1.0e20  pargp  1.0  -10.000      1
par300       none  relative   10.000     1.0e-20  1.0e20  pargp  1.0  -10.000      1
* observation groups
obs
regul_kz4
regul_kz3
regul_kz1
regul_kp4
regul_kp3
regul_kp1
* observation data
prenticepark  6.10E+02  1.33E-01  obs
minersvillea  8.00E+02  1.33E-01  obs
diapervillem  6.10E+02  1.33E-01  obs
tolmanmw1_go  6.14E+02  1.33E-01  obs
bigboy_good  6.10E+02  1.33E-01  obs
4inhp_good  6.10E+02  1.33E-01  obs
degodt_good  6.14E+02  1.33E-01  obs
2090224601_b  1.19E+03  2.00E-01  obs
7090434201_b  6.14E+02  2.00E-01  obs
1090415801_b  6.09E+02  2.00E-01  obs
5090481101_b  6.15E+02  2.00E-01  obs
9090373001_b  1.51E+03  2.00E-01  obs
8090444101_b  6.17E+02  2.00E-01  obs
8090243201_g  1.38E+03  1.33E-01  obs
7090200301_g  1.46E+03  1.33E-01  obs
9090364201_g  6.68E+02  1.33E-01  obs
8090413001_g  6.10E+02  1.33E-01  obs
2090391801_g  6.10E+02  1.33E-01  obs
0090424501_g  6.10E+02  1.33E-01  obs
2090422501_g  6.10E+02  1.33E-01  obs
7090464801_g  6.07E+02  1.33E-01  obs
w4803234202_  6.06E+02  1.33E-01  obs
w4803234303_  6.06E+02  1.33E-01  obs
w4803234301_  6.12E+02  1.33E-01  obs
w4802274201_  6.74E+02  1.33E-01  obs
w4602244301_  1.03E+03  1.33E-01  obs
5090303401_f  1.56E+03  2.86E-02  obs
4090583301_f  1.45E+03  2.86E-02  obs
9090380901_f  1.51E+03  2.86E-02  obs
1090175601_f  1.70E+03  2.86E-02  obs
2090494601_f  1.38E+03  2.86E-02  obs
1090385301_f  1.24E+03  2.86E-02  obs
1090385302_f  1.24E+03  2.86E-02  obs
5090375901_f  1.18E+03  2.86E-02  obs
6090411601_f  1.22E+03  2.86E-02  obs
9090242701_f  1.46E+03  2.86E-02  obs
2090430501_f  1.05E+03  2.86E-02  obs
9090362001_f  1.13E+03  2.86E-02  obs
9090413101_f  1.02E+03  2.86E-02  obs
0090354601_f  1.18E+03  2.86E-02  obs
2090345801_f  1.17E+03  2.86E-02  obs
4090434601_f  9.85E+02  2.86E-02  obs
6090434601_f  9.63E+02  2.86E-02  obs
6090435101_f  1.00E+03  2.86E-02  obs
8090440101_f  9.88E+02  2.86E-02  obs
8090440102_f  9.85E+02  2.86E-02  obs
9090440501_f  9.96E+02  2.86E-02  obs
9090441101_f  9.98E+02  2.86E-02  obs
0090440001_f  9.87E+02  2.86E-02  obs
2090460201_f  9.50E+02  2.86E-02  obs
3270904011_f  1.02E+03  2.86E-02  obs
0090463301_f  8.60E+02  2.86E-02  obs
1090462901_f  8.65E+02  2.86E-02  obs
2090461601_f  8.72E+02  2.86E-02  obs
4090454701_f  8.40E+02  2.86E-02  obs
4090463501_f  8.80E+02  2.86E-02  obs
5090453801_f  8.65E+02  2.86E-02  obs
3370904011_f  9.90E+02  2.86E-02  obs
1090444401_f  8.71E+02  2.86E-02  obs
5090435501_f  8.82E+02  2.86E-02  obs
6090464401_f  8.28E+02  2.86E-02  obs
4090441301_f  8.30E+02  2.86E-02  obs
8090341101_f  1.16E+03  2.86E-02  obs
8090420101_f  8.80E+02  2.86E-02  obs
5090340001_f  1.14E+03  2.86E-02  obs
7090414701_f  9.00E+02  2.86E-02  obs
3090473601_f  7.90E+02  2.86E-02  obs
5090351501_f  1.22E+03  2.86E-02  obs
6090473301_f  8.19E+02  2.86E-02  obs
6090473302_f  8.08E+02  2.86E-02  obs
7090424901_f  7.61E+02  2.86E-02  obs
4090341801_f  1.18E+03  2.86E-02  obs
8090335801_f  1.18E+03  2.86E-02  obs
1090482301_f  7.44E+02  2.86E-02  obs
5090472601_f  7.60E+02  2.86E-02  obs
3090490701_f  7.69E+02  2.86E-02  obs
5090483601_f  7.54E+02  2.86E-02  obs
8090484101_f  7.60E+02  2.86E-02  obs
3090561601_f  8.31E+02  2.86E-02  obs
4090473301_f  7.60E+02  2.86E-02  obs
9090513801_f  7.91E+02  2.86E-02  obs
6090314501_f  1.10E+03  2.86E-02  obs
8090312401_f  1.09E+03  2.86E-02  obs
8090303001_f  1.04E+03  2.86E-02  obs
1090501901_f  7.51E+02  2.86E-02  obs
7090303901_f  1.11E+03  2.86E-02  obs
9090162201_f  1.15E+03  2.86E-02  obs
6090541101_f  6.64E+02  2.86E-02  obs
7090541001_f  6.67E+02  2.86E-02  obs
7090330201_f  7.59E+02  2.86E-02  obs
9090342701_f  7.37E+02  2.86E-02  obs