pcf
* control data
 restart regularisation
411  1418  7  4059  9
6  1  single  point  1  0  0
2.000000e+001  -3.000000e+000  3.000000e-001  1.000000e-002  7 999 lamforgive
1.000000e+001  1.000000e+001  1.000000e-003
1.000000e-001 1 noaui
25  1.000000e-002  3  3  1.000000e-002  3
0  0  0   PARSAVEITN
* singular value decomposition
  1
  417  5.000000e-007
  1
* parameter groups
Kp     relative   1.000000e-002  0.000000e+000  switch  2.000000e+000  parabolic
Kz     relative   1.000000e-002  0.000000e+000  switch  2.000000e+000  parabolic
Rech   relative   1.000000e-002  0.000000e+000  switch  2.000000e+000  parabolic
GHB_Cond   relative   1.000000e-002  0.000000e+000  switch  2.000000e+000  parabolic
SFR_cond relative 1e-2 0 switch 2 parabolic
L1L2K relative 1e-2 0 switch 2 parabolic
* parameter data
GHc1  log  factor  1.0    1.000000e-005  10000000000.0    GHB_Cond   1.0   0.0 1
KpKx3SS1  log  factor  20.000000  0.010000  1000.000000  Kp  1.0  0.0  1
KpKx3SS2  log  factor  20.000000  0.010000  1000.000000  Kp  1.0  0.0  1
KpKx3SS3  log  factor  20.000000  0.010000  1000.000000  Kp  1.0  0.0  1
KpKx3SS4  log  factor  20.000000  0.010000  1000.000000  Kp  1.0  0.0  1
KpKx3SS5  log  factor  20.000000  0.010000  1000.000000  Kp  1.0  0.0  1
KpKx3SS6  log  factor  20.000000  0.010000  1000.000000  Kp  1.0  0.0  1
KpKx3SS7  log  factor  20.000000  0.010000  1000.000000  Kp  1.0  0.0  1
KpKx3SS8  log  factor  20.000000  0.010000  1000.000000  Kp  1.0  0.0  1
KpKx3SS9  log  factor  20.000000  0.010000  1000.000000  Kp  1.0  0.0  1
KpKx3SS10  log  factor  20.000000  0.010000  1000.000000  Kp  1.0  0.0  1
KpKx3SS11  log  factor  20.000000  0.010000  1000.000000  Kp  1.0  0.0  1
KpKx3SS12  log  factor  20.000000  0.010000  1000.000000  Kp  1.0  0.0  1
KpKx3SS13  log  factor  20.000000  0.010000  1000.000000  Kp  1.0  0.0  1
KpKx3SS14  log  factor  20.000000  0.010000  1000.000000  Kp  1.0  0.0  1
KpKx3SS15  log  factor  20.000000  0.010000  1000.000000  Kp  1.0  0.0  1
KpKx3SS16  log  factor  20.000000  0.010000  1000.000000  Kp  1.0  0.0  1
KpKx3SS17  log  factor  20.000000  0.010000  1000.000000  Kp  1.0  0.0  1
KpKx3SS18  log  factor  20.000000  0.010000  1000.000000  Kp  1.0  0.0  1
KpKx3SS19  log  factor  20.000000  0.010000  1000.000000  Kp  1.0  0.0  1
KpKx3SS20  log  factor  20.000000  0.010000  1000.000000  Kp  1.0  0.0  1
KpKx3SS21  log  factor  20.000000  0.010000  1000.000000  Kp  1.0  0.0  1
KpKx3SS22  log  factor  20.000000  0.010000  1000.000000  Kp  1.0  0.0  1
KpKx3SS23  log  factor  20.000000  0.010000  1000.000000  Kp  1.0  0.0  1
KpKx3SS24  log  factor  20.000000  0.010000  1000.000000  Kp  1.0  0.0  1
KpKx3SS25  log  factor  20.000000  0.010000  1000.000000  Kp  1.0  0.0  1
KpKx3SS26  log  factor  20.000000  0.010000  1000.000000  Kp  1.0  0.0  1
KpKx3SS27  log  factor  20.000000  0.010000  1000.000000  Kp  1.0  0.0  1
KpKx3SS28  log  factor  20.000000  0.010000  1000.000000  Kp  1.0  0.0  1
KpKx3SS29  log  factor  20.000000  0.010000  1000.000000  Kp  1.0  0.0  1
KpKx3SS30  log  factor  20.000000  0.010000  1000.000000  Kp  1.0  0.0  1
KpKx3SS31  log  factor  20.000000  0.010000  1000.000000  Kp  1.0  0.0  1
KpKx3SS32  log  factor  20.000000  0.010000  1000.000000  Kp  1.0  0.0  1
KpKx3SS33  log  factor  20.000000  0.010000  1000.000000  Kp  1.0  0.0  1
KpKx3SS34  log  factor  20.000000  0.010000  1000.000000  Kp  1.0  0.0  1
KpKx3SS35  log  factor  20.000000  0.010000  1000.000000  Kp  1.0  0.0  1
KpKx3SS36  log  factor  20.000000  0.010000  1000.000000  Kp  1.0  0.0  1
KpKx3SS37  log  factor  20.000000  0.010000  1000.000000  Kp  1.0  0.0  1
KpKx3SS38  log  factor  20.000000  0.010000  1000.000000  Kp  1.0  0.0  1
KpKx3SS39  log  factor  20.000000  0.010000  1000.000000  Kp  1.0  0.0  1
KpKx3SS40  log  factor  20.000000  0.010000  1000.000000  Kp  1.0  0.0  1
KpKx3SS41  log  factor  20.000000  0.010000  1000.000000  Kp  1.0  0.0  1
KpKx3SS42  log  factor  20.000000  0.010000  1000.000000  Kp  1.0  0.0  1
KpKx3SS43  log  factor  20.000000  0.010000  1000.000000  Kp  1.0  0.0  1
KpKx3SS44  log  factor  20.000000  0.010000  1000.000000  Kp  1.0  0.0  1
KpKx3SS45  log  factor  20.000000  0.010000  1000.000000  Kp  1.0  0.0  1
KpKx3SS46  log  factor  20.000000  0.010000  1000.000000  Kp  1.0  0.0  1
KpKx3C47  log  factor  1.000000  0.001000  1000.000000  Kp  1.0  0.0  1
KpKx3C48  log  factor  1.000000  0.001000  1000.000000  Kp  1.0  0.0  1
KpKx3C49  log  factor  1.000000  0.001000  1000.000000  Kp  1.0  0.0  1
KpKx3C50  log  factor  1.000000  0.001000  1000.000000  Kp  1.0  0.0  1
KpKx3C51  log  factor  1.000000  0.001000  1000.000000  Kp  1.0  0.0  1
KpKx3C52  log  factor  1.000000  0.001000  1000.000000  Kp  1.0  0.0  1
KpKx3C53  log  factor  1.000000  0.001000  1000.000000  Kp  1.0  0.0  1
KpKx3C54  log  factor  1.000000  0.001000  1000.000000  Kp  1.0  0.0  1
KpKx3C55  log  factor  1.000000  0.001000  1000.000000  Kp  1.0  0.0  1
KpKx3C56  log  factor  1.000000  0.001000  1000.000000  Kp  1.0  0.0  1
KpKx3C57  log  factor  1.000000  0.001000  1000.000000  Kp  1.0  0.0  1
KpKx3C58  log  factor  1.000000  0.001000  1000.000000  Kp  1.0  0.0  1
KpKx3C59  log  factor  1.000000  0.001000  1000.000000  Kp  1.0  0.0  1
KpKx3C60  log  factor  1.000000  0.001000  1000.000000  Kp  1.0  0.0  1
KpKx3C61  log  factor  1.000000  0.001000  1000.000000  Kp  1.0  0.0  1
KpKx3C62  log  factor  1.000000  0.001000  1000.000000  Kp  1.0  0.0  1
KpKx3C63  log  factor  1.000000  0.001000  1000.000000  Kp  1.0  0.0  1
KpKx3C64  log  factor  1.000000  0.001000  1000.000000  Kp  1.0  0.0  1
KpKx3C65  log  factor  1.000000  0.001000  1000.000000  Kp  1.0  0.0  1
KpKx3C66  log  factor  1.000000  0.001000  1000.000000  Kp  1.0  0.0  1
KpKx3C67  log  factor  1.000000  0.001000  1000.000000  Kp  1.0  0.0  1
KpKx3C68  log  factor  1.000000  0.001000  1000.000000  Kp  1.0  0.0  1
KpKx3C69  log  factor  1.000000  0.001000  1000.000000  Kp  1.0  0.0  1
KpKx3C70  log  factor  1.000000  0.001000  1000.000000  Kp  1.0  0.0  1
KpKx3C71  log  factor  1.000000  0.001000  1000.000000  Kp  1.0  0.0  1
KpKx3C72  log  factor  1.000000  0.001000  1000.000000  Kp  1.0  0.0  1
KpKx3C73  log  factor  1.000000  0.001000  1000.000000  Kp  1.0  0.0  1
KpKx3C74  log  factor  1.000000  0.001000  1000.000000  Kp  1.0  0.0  1
KpKx3C75  log  factor  1.000000  0.001000  1000.000000  Kp  1.0  0.0  1
KpKx3C76  log  factor  1.000000  0.001000  1000.000000  Kp  1.0  0.0  1
KpKx3C77  log  factor  1.000000  0.001000  1000.000000  Kp  1.0  0.0  1
KpKx3C78  log  factor  1.000000  0.001000  1000.000000  Kp  1.0  0.0  1
KpKx3C79  log  factor  1.000000  0.001000  1000.000000  Kp  1.0  0.0  1
KpKx3C80  log  factor  1.000000  0.001000  1000.000000  Kp  1.0  0.0  1
KpKx3C81  log  factor  1.000000  0.001000  1000.000000  Kp  1.0  0.0  1
KpKx3C82  log  factor  1.000000  0.001000  1000.000000  Kp  1.0  0.0  1
KpKx3C83  log  factor  1.000000  0.001000  1000.000000  Kp  1.0  0.0  1
KpKx3C84  log  factor  1.000000  0.001000  1000.000000  Kp  1.0  0.0  1
KpKx3C85  log  factor  1.000000  0.001000  1000.000000  Kp  1.0  0.0  1
KpKx3C86  log  factor  1.000000  0.001000  1000.000000  Kp  1.0  0.0  1
KpKx3C87  log  factor  1.000000  0.001000  1000.000000  Kp  1.0  0.0  1
KpKx3C88  log  factor  1.000000  0.001000  1000.000000  Kp  1.0  0.0  1
KpKx3C89  log  factor  1.000000  0.001000  1000.000000  Kp  1.0  0.0  1
KpKx3C90  log  factor  1.000000  0.001000  1000.000000  Kp  1.0  0.0  1
KpKx3C91  log  factor  1.000000  0.001000  1000.000000  Kp  1.0  0.0  1
KpKx3C92  log  factor  1.000000  0.001000  1000.000000  Kp  1.0  0.0  1
KpKx3C93  log  factor  1.000000  0.001000  1000.000000  Kp  1.0  0.0  1
KpKx3C94  log  factor  1.000000  0.001000  1000.000000  Kp  1.0  0.0  1
KpKx3C95  log  factor  1.000000  0.001000  1000.000000  Kp  1.0  0.0  1
KpKx3C96  log  factor  1.000000  0.001000  1000.000000  Kp  1.0  0.0  1
KpKx3C97  log  factor  1.000000  0.001000  1000.000000  Kp  1.0  0.0  1
KpKx3C98  log  factor  1.000000  0.001000  1000.000000  Kp  1.0  0.0  1
KpKx3C99  log  factor  1.000000  0.001000  1000.000000  Kp  1.0  0.0  1
KpKx3C100  log  factor  1.000000  0.001000  1000.000000  Kp  1.0  0.0  1
KpKx4SS101  log  factor  10.000000  0.010000  1000.000000  Kp  1.0  0.0  1
KpKx4SS102  log  factor  10.000000  0.010000  1000.000000  Kp  1.0  0.0  1
KpKx4SS103  log  factor  10.000000  0.010000  1000.000000  Kp  1.0  0.0  1
KpKx4SS104  log  factor  10.000000  0.010000  1000.000000  Kp  1.0  0.0  1
KpKx4SS105  log  factor  10.000000  0.010000  1000.000000  Kp  1.0  0.0  1
KpKx4SS106  log  factor  10.000000  0.010000  1000.000000  Kp  1.0  0.0  1
KpKx4SS107  log  factor  10.000000  0.010000  1000.000000  Kp  1.0  0.0  1
KpKx4SS108  log  factor  10.000000  0.010000  1000.000000  Kp  1.0  0.0  1
KpKx4SS109  log  factor  10.000000  0.010000  1000.000000  Kp  1.0  0.0  1
KpKx4SS110  log  factor  10.000000  0.010000  1000.000000  Kp  1.0  0.0  1
KpKx4SS111  log  factor  10.000000  0.010000  1000.000000  Kp  1.0  0.0  1
KpKx4SS112  log  factor  10.000000  0.010000  1000.000000  Kp  1.0  0.0  1
KpKx4SS113  log  factor  10.000000  0.010000  1000.000000  Kp  1.0  0.0  1
KpKx4SS114  log  factor  10.000000  0.010000  1000.000000  Kp  1.0  0.0  1
KpKx4SS115  log  factor  10.000000  0.010000  1000.000000  Kp  1.0  0.0  1
KpKx4SS116  log  factor  10.000000  0.010000  1000.000000  Kp  1.0  0.0  1
KpKx4SS117  log  factor  10.000000  0.010000  1000.000000  Kp  1.0  0.0  1
KpKx4SS118  log  factor  10.000000  0.010000  1000.000000  Kp  1.0  0.0  1
KpKx4SS119  log  factor  10.000000  0.010000  1000.000000  Kp  1.0  0.0  1
KpKx4SS120  log  factor  10.000000  0.010000  1000.000000  Kp  1.0  0.0  1
KpKx4SS121  log  factor  10.000000  0.010000  1000.000000  Kp  1.0  0.0  1
KpKx4SS122  log  factor  10.000000  0.010000  1000.000000  Kp  1.0  0.0  1
KpKx4SS123  log  factor  10.000000  0.010000  1000.000000  Kp  1.0  0.0  1
KpKx4SS124  log  factor  10.000000  0.010000  1000.000000  Kp  1.0  0.0  1
KpKx4SS125  log  factor  10.000000  0.010000  1000.000000  Kp  1.0  0.0  1
KpKx4SS126  log  factor  10.000000  0.010000  1000.000000  Kp  1.0  0.0  1
KpKx4SS127  log  factor  10.000000  0.010000  1000.000000  Kp  1.0  0.0  1
KpKx4SS128  log  factor  10.000000  0.010000  1000.000000  Kp  1.0  0.0  1
KpKx4SS129  log  factor  10.000000  0.010000  1000.000000  Kp  1.0  0.0  1
KpKx4SS130  log  factor  10.000000  0.010000  1000.000000  Kp  1.0  0.0  1
KpKx4SS131  log  factor  10.000000  0.010000  1000.000000  Kp  1.0  0.0  1
KpKx4SS132  log  factor  10.000000  0.010000  1000.000000  Kp  1.0  0.0  1
KpKx4SS133  log  factor  10.000000  0.010000  1000.000000  Kp  1.0  0.0  1
KpKx4SS134  log  factor  10.000000  0.010000  1000.000000  Kp  1.0  0.0  1
KpKx4SS135  log  factor  10.000000  0.010000  1000.000000  Kp  1.0  0.0  1
KpKx4SS136  log  factor  10.000000  0.010000  1000.000000  Kp  1.0  0.0  1
KpKx4SS137  log  factor  10.000000  0.010000  1000.000000  Kp  1.0  0.0  1
KpKx4SS138  log  factor  10.000000  0.010000  1000.000000  Kp  1.0  0.0  1
KpKx4SS139  log  factor  10.000000  0.010000  1000.000000  Kp  1.0  0.0  1
KpKx4SS140  log  factor  10.000000  0.010000  1000.000000  Kp  1.0  0.0  1
KpKx4SS141  log  factor  10.000000  0.010000  1000.000000  Kp  1.0  0.0  1
KpKx4SS142  log  factor  10.000000  0.010000  1000.000000  Kp  1.0  0.0  1
KpKx4SS143  log  factor  10.000000  0.010000  1000.000000  Kp  1.0  0.0  1
KpKx4SS144  log  factor  10.000000  0.010000  1000.000000  Kp  1.0  0.0  1
KpKx4SS145  log  factor  10.000000  0.010000  1000.000000  Kp  1.0  0.0  1
KpKx4SS146  log  factor  10.000000  0.010000  1000.000000  Kp  1.0  0.0  1
KpKx4C147  log  factor  1.000000  0.001000  1000.000000  Kp  1.0  0.0  1
KpKx4C148  log  factor  1.000000  0.001000  1000.000000  Kp  1.0  0.0  1
KpKx4C149  log  factor  1.000000  0.001000  1000.000000  Kp  1.0  0.0  1
KpKx4C150  log  factor  1.000000  0.001000  1000.000000  Kp  1.0  0.0  1
KpKx4C151  log  factor  1.000000  0.001000  1000.000000  Kp  1.0  0.0  1
KpKx4C152  log  factor  1.000000  0.001000  1000.000000  Kp  1.0  0.0  1
KpKx4C153  log  factor  1.000000  0.001000  1000.000000  Kp  1.0  0.0  1
KpKx4C154  log  factor  1.000000  0.001000  1000.000000  Kp  1.0  0.0  1
KpKx4C155  log  factor  1.000000  0.001000  1000.000000  Kp  1.0  0.0  1
KpKx4C156  log  factor  1.000000  0.001000  1000.000000  Kp  1.0  0.0  1
KpKx4C157  log  factor  1.000000  0.001000  1000.000000  Kp  1.0  0.0  1
KpKx4C158  log  factor  1.000000  0.001000  1000.000000  Kp  1.0  0.0  1
KpKx4C159  log  factor  1.000000  0.001000  1000.000000  Kp  1.0  0.0  1
KpKx4C160  log  factor  1.000000  0.001000  1000.000000  Kp  1.0  0.0  1
KpKx4C161  log  factor  1.000000  0.001000  1000.000000  Kp  1.0  0.0  1
KpKx4C162  log  factor  1.000000  0.001000  1000.000000  Kp  1.0  0.0  1
KpKx4C163  log  factor  1.000000  0.001000  1000.000000  Kp  1.0  0.0  1
KpKx4C164  log  factor  1.000000  0.001000  1000.000000  Kp  1.0  0.0  1
KpKx4C165  log  factor  1.000000  0.001000  1000.000000  Kp  1.0  0.0  1
KpKx4C166  log  factor  1.000000  0.001000  1000.000000  Kp  1.0  0.0  1
KpKx4C167  log  factor  1.000000  0.001000  1000.000000  Kp  1.0  0.0  1
KpKx4C168  log  factor  1.000000  0.001000  1000.000000  Kp  1.0  0.0  1
KpKx4C169  log  factor  1.000000  0.001000  1000.000000  Kp  1.0  0.0  1
KpKx4C170  log  factor  1.000000  0.001000  1000.000000  Kp  1.0  0.0  1
KpKx4C171  log  factor  1.000000  0.001000  1000.000000  Kp  1.0  0.0  1
KpKx4C172  log  factor  1.000000  0.001000  1000.000000  Kp  1.0  0.0  1
KpKx4C173  log  factor  1.000000  0.001000  1000.000000  Kp  1.0  0.0  1
KpKx4C174  log  factor  1.000000  0.001000  1000.000000  Kp  1.0  0.0  1
KpKx4C175  log  factor  1.000000  0.001000  1000.000000  Kp  1.0  0.0  1
KpKx4C176  log  factor  1.000000  0.001000  1000.000000  Kp  1.0  0.0  1
KpKx4C177  log  factor  1.000000  0.001000  1000.000000  Kp  1.0  0.0  1
KpKx4C178  log  factor  1.000000  0.001000  1000.000000  Kp  1.0  0.0  1
KpKx4C179  log  factor  1.000000  0.001000  1000.000000  Kp  1.0  0.0  1
KpKx4C180  log  factor  1.000000  0.001000  1000.000000  Kp  1.0  0.0  1
KpKx4C181  log  factor  1.000000  0.001000  1000.000000  Kp  1.0  0.0  1
KpKx4C182  log  factor  1.000000  0.001000  1000.000000  Kp  1.0  0.0  1
KpKx4C183  log  factor  1.000000  0.001000  1000.000000  Kp  1.0  0.0  1
KpKx4C184  log  factor  1.000000  0.001000  1000.000000  Kp  1.0  0.0  1
KpKx4C185  log  factor  1.000000  0.001000  1000.000000  Kp  1.0  0.0  1
KpKx4C186  log  factor  1.000000  0.001000  1000.000000  Kp  1.0  0.0  1
KpKx4C187  log  factor  1.000000  0.001000  1000.000000  Kp  1.0  0.0  1
KpKx4C188  log  factor  1.000000  0.001000  1000.000000  Kp  1.0  0.0  1
KpKx4C189  log  factor  1.000000  0.001000  1000.000000  Kp  1.0  0.0  1
KpKx4C190  log  factor  1.000000  0.001000  1000.000000  Kp  1.0  0.0  1
KpKx4C191  log  factor  1.000000  0.001000  1000.000000  Kp  1.0  0.0  1
KpKx4C192  log  factor  1.000000  0.001000  1000.000000  Kp  1.0  0.0  1
KpKx4C193  log  factor  1.000000  0.001000  1000.000000  Kp  1.0  0.0  1
KpKx4C194  log  factor  1.000000  0.001000  1000.000000  Kp  1.0  0.0  1
KpKx4C195  log  factor  1.000000  0.001000  1000.000000  Kp  1.0  0.0  1
KpKx4C196  log  factor  1.000000  0.001000  1000.000000  Kp  1.0  0.0  1
KpKx4C197  log  factor  1.000000  0.001000  1000.000000  Kp  1.0  0.0  1
KpKx4C198  log  factor  1.000000  0.001000  1000.000000  Kp  1.0  0.0  1
KpKx4C199  log  factor  1.000000  0.001000  1000.000000  Kp  1.0  0.0  1
KpKx4C200  log  factor  1.000000  0.001000  1000.000000  Kp  1.0  0.0  1
KzKz3SS1  log  factor  2.000000e+001  1.000000e-002  1.000000e+003  Kz  1.0  0.0  1
KzKz3SS2  log  factor  2.000000e+001  1.000000e-002  1.000000e+003  Kz  1.0  0.0  1
KzKz3SS3  log  factor  2.000000e+001  1.000000e-002  1.000000e+003  Kz  1.0  0.0  1
KzKz3SS4  log  factor  2.000000e+001  1.000000e-002  1.000000e+003  Kz  1.0  0.0  1
KzKz3SS5  log  factor  2.000000e+001  1.000000e-002  1.000000e+003  Kz  1.0  0.0  1
KzKz3SS6  log  factor  2.000000e+001  1.000000e-002  1.000000e+003  Kz  1.0  0.0  1
KzKz3SS7  log  factor  2.000000e+001  1.000000e-002  1.000000e+003  Kz  1.0  0.0  1
KzKz3SS8  log  factor  2.000000e+001  1.000000e-002  1.000000e+003  Kz  1.0  0.0  1
KzKz3SS9  log  factor  2.000000e+001  1.000000e-002  1.000000e+003  Kz  1.0  0.0  1
KzKz3SS10  log  factor  2.000000e+001  1.000000e-002  1.000000e+003  Kz  1.0  0.0  1
KzKz3SS11  log  factor  2.000000e+001  1.000000e-002  1.000000e+003  Kz  1.0  0.0  1
KzKz3SS12  log  factor  2.000000e+001  1.000000e-002  1.000000e+003  Kz  1.0  0.0  1
KzKz3SS13  log  factor  2.000000e+001  1.000000e-002  1.000000e+003  Kz  1.0  0.0  1
KzKz3SS14  log  factor  2.000000e+001  1.000000e-002  1.000000e+003  Kz  1.0  0.0  1
KzKz3SS15  log  factor  2.000000e+001  1.000000e-002  1.000000e+003  Kz  1.0  0.0  1
KzKz3SS16  log  factor  2.000000e+001  1.000000e-002  1.000000e+003  Kz  1.0  0.0  1
KzKz3SS17  log  factor  2.000000e+001  1.000000e-002  1.000000e+003  Kz  1.0  0.0  1
KzKz3SS18  log  factor  2.000000e+001  1.000000e-002  1.000000e+003  Kz  1.0  0.0  1
KzKz3SS19  log  factor  2.000000e+001  1.000000e-002  1.000000e+003  Kz  1.0  0.0  1
KzKz3SS20  log  factor  2.000000e+001  1.000000e-002  1.000000e+003  Kz  1.0  0.0  1
KzKz3SS21  log  factor  2.000000e+001  1.000000e-002  1.000000e+003  Kz  1.0  0.0  1
KzKz3SS22  log  factor  2.000000e+001  1.000000e-002  1.000000e+003  Kz  1.0  0.0  1
KzKz3SS23  log  factor  2.000000e+001  1.000000e-002  1.000000e+003  Kz  1.0  0.0  1
KzKz3SS24  log  factor  2.000000e+001  1.000000e-002  1.000000e+003  Kz  1.0  0.0  1
KzKz3SS25  log  factor  2.000000e+001  1.000000e-002  1.000000e+003  Kz  1.0  0.0  1
KzKz3SS26  log  factor  2.000000e+001  1.000000e-002  1.000000e+003  Kz  1.0  0.0  1
KzKz3SS27  log  factor  2.000000e+001  1.000000e-002  1.000000e+003  Kz  1.0  0.0  1
KzKz3SS28  log  factor  2.000000e+001  1.000000e-002  1.000000e+003  Kz  1.0  0.0  1
KzKz3SS29  log  factor  2.000000e+001  1.000000e-002  1.000000e+003  Kz  1.0  0.0  1
KzKz3SS30  log  factor  2.000000e+001  1.000000e-002  1.000000e+003  Kz  1.0  0.0  1
KzKz3SS31  log  factor  2.000000e+001  1.000000e-002  1.000000e+003  Kz  1.0  0.0  1
KzKz3SS32  log  factor  2.000000e+001  1.000000e-002  1.000000e+003  Kz  1.0  0.0  1
KzKz3SS33  log  factor  2.000000e+001  1.000000e-002  1.000000e+003  Kz  1.0  0.0  1
KzKz3SS34  log  factor  2.000000e+001  1.000000e-002  1.000000e+003  Kz  1.0  0.0  1
KzKz3SS35  log  factor  2.000000e+001  1.000000e-002  1.000000e+003  Kz  1.0  0.0  1
KzKz3SS36  log  factor  2.000000e+001  1.000000e-002  1.000000e+003  Kz  1.0  0.0  1
KzKz3SS37  log  factor  2.000000e+001  1.000000e-002  1.000000e+003  Kz  1.0  0.0  1
KzKz3SS38  log  factor  2.000000e+001  1.000000e-002  1.000000e+003  Kz  1.0  0.0  1
KzKz3SS39  log  factor  2.000000e+001  1.000000e-002  1.000000e+003  Kz  1.0  0.0  1
KzKz3SS40  log  factor  2.000000e+001  1.000000e-002  1.000000e+003  Kz  1.0  0.0  1
KzKz3SS41  log  factor  2.000000e+001  1.000000e-002  1.000000e+003  Kz  1.0  0.0  1
KzKz3SS42  log  factor  2.000000e+001  1.000000e-002  1.000000e+003  Kz  1.0  0.0  1
KzKz3SS43  log  factor  2.000000e+001  1.000000e-002  1.000000e+003  Kz  1.0  0.0  1
KzKz3SS44  log  factor  2.000000e+001  1.000000e-002  1.000000e+003  Kz  1.0  0.0  1
KzKz3SS45  log  factor  2.000000e+001  1.000000e-002  1.000000e+003  Kz  1.0  0.0  1
KzKz3SS46  log  factor  2.000000e+001  1.000000e-002  1.000000e+003  Kz  1.0  0.0  1
KzKz3C47  log  factor  1.000000e+000  1.000000e-003  1.000000e+003  Kz  1.0  0.0  1
KzKz3C48  log  factor  1.000000e+000  1.000000e-003  1.000000e+003  Kz  1.0  0.0  1
KzKz3C49  log  factor  1.000000e+000  1.000000e-003  1.000000e+003  Kz  1.0  0.0  1
KzKz3C50  log  factor  1.000000e+000  1.000000e-003  1.000000e+003  Kz  1.0  0.0  1
KzKz3C51  log  factor  1.000000e+000  1.000000e-003  1.000000e+003  Kz  1.0  0.0  1
KzKz3C52  log  factor  1.000000e+000  1.000000e-003  1.000000e+003  Kz  1.0  0.0  1
KzKz3C53  log  factor  1.000000e+000  1.000000e-003  1.000000e+003  Kz  1.0  0.0  1
KzKz3C54  log  factor  1.000000e+000  1.000000e-003  1.000000e+003  Kz  1.0  0.0  1
KzKz3C55  log  factor  1.000000e+000  1.000000e-003  1.000000e+003  Kz  1.0  0.0  1
KzKz3C56  log  factor  1.000000e+000  1.000000e-003  1.000000e+003  Kz  1.0  0.0  1
KzKz3C57  log  factor  1.000000e+000  1.000000e-003  1.000000e+003  Kz  1.0  0.0  1
KzKz3C58  log  factor  1.000000e+000  1.000000e-003  1.000000e+003  Kz  1.0  0.0  1
KzKz3C59  log  factor  1.000000e+000  1.000000e-003  1.000000e+003  Kz  1.0  0.0  1
KzKz3C60  log  factor  1.000000e+000  1.000000e-003  1.000000e+003  Kz  1.0  0.0  1
KzKz3C61  log  factor  1.000000e+000  1.000000e-003  1.000000e+003  Kz  1.0  0.0  1
KzKz3C62  log  factor  1.000000e+000  1.000000e-003  1.000000e+003  Kz  1.0  0.0  1
KzKz3C63  log  factor  1.000000e+000  1.000000e-003  1.000000e+003  Kz  1.0  0.0  1
KzKz3C64  log  factor  1.000000e+000  1.000000e-003  1.000000e+003  Kz  1.0  0.0  1
KzKz3C65  log  factor  1.000000e+000  1.000000e-003  1.000000e+003  Kz  1.0  0.0  1
KzKz3C66  log  factor  1.000000e+000  1.000000e-003  1.000000e+003  Kz  1.0  0.0  1
KzKz3C67  log  factor  1.000000e+000  1.000000e-003  1.000000e+003  Kz  1.0  0.0  1
KzKz3C68  log  factor  1.000000e+000  1.000000e-003  1.000000e+003  Kz  1.0  0.0  1
KzKz3C69  log  factor  1.000000e+000  1.000000e-003  1.000000e+003  Kz  1.0  0.0  1
KzKz3C70  log  factor  1.000000e+000  1.000000e-003  1.000000e+003  Kz  1.0  0.0  1
KzKz3C71  log  factor  1.000000e+000  1.000000e-003  1.000000e+003  Kz  1.0  0.0  1
KzKz3C72  log  factor  1.000000e+000  1.000000e-003  1.000000e+003  Kz  1.0  0.0  1
KzKz3C73  log  factor  1.000000e+000  1.000000e-003  1.000000e+003  Kz  1.0  0.0  1
KzKz3C74  log  factor  1.000000e+000  1.000000e-003  1.000000e+003  Kz  1.0  0.0  1
KzKz3C75  log  factor  1.000000e+000  1.000000e-003  1.000000e+003  Kz  1.0  0.0  1
KzKz3C76  log  factor  1.000000e+000  1.000000e-003  1.000000e+003  Kz  1.0  0.0  1
KzKz3C77  log  factor  1.000000e+000  1.000000e-003  1.000000e+003  Kz  1.0  0.0  1
KzKz3C78  log  factor  1.000000e+000  1.000000e-003  1.000000e+003  Kz  1.0  0.0  1
KzKz3C79  log  factor  1.000000e+000  1.000000e-003  1.000000e+003  Kz  1.0  0.0  1
KzKz3C80  log  factor  1.000000e+000  1.000000e-003  1.000000e+003  Kz  1.0  0.0  1
KzKz3C81  log  factor  1.000000e+000  1.000000e-003  1.000000e+003  Kz  1.0  0.0  1
KzKz3C82  log  factor  1.000000e+000  1.000000e-003  1.000000e+003  Kz  1.0  0.0  1
KzKz3C83  log  factor  1.000000e+000  1.000000e-003  1.000000e+003  Kz  1.0  0.0  1
KzKz3C84  log  factor  1.000000e+000  1.000000e-003  1.000000e+003  Kz  1.0  0.0  1
KzKz3C85  log  factor  1.000000e+000  1.000000e-003  1.000000e+003  Kz  1.0  0.0  1
KzKz3C86  log  factor  1.000000e+000  1.000000e-003  1.000000e+003  Kz  1.0  0.0  1
KzKz3C87  log  factor  1.000000e+000  1.000000e-003  1.000000e+003  Kz  1.0  0.0  1
KzKz3C88  log  factor  1.000000e+000  1.000000e-003  1.000000e+003  Kz  1.0  0.0  1
KzKz3C89  log  factor  1.000000e+000  1.000000e-003  1.000000e+003  Kz  1.0  0.0  1
KzKz3C90  log  factor  1.000000e+000  1.000000e-003  1.000000e+003  Kz  1.0  0.0  1
KzKz3C91  log  factor  1.000000e+000  1.000000e-003  1.000000e+003  Kz  1.0  0.0  1
KzKz3C92  log  factor  1.000000e+000  1.000000e-003  1.000000e+003  Kz  1.0  0.0  1
KzKz3C93  log  factor  1.000000e+000  1.000000e-003  1.000000e+003  Kz  1.0  0.0  1
KzKz3C94  log  factor  1.000000e+000  1.000000e-003  1.000000e+003  Kz  1.0  0.0  1
KzKz3C95  log  factor  1.000000e+000  1.000000e-003  1.000000e+003  Kz  1.0  0.0  1
KzKz3C96  log  factor  1.000000e+000  1.000000e-003  1.000000e+003  Kz  1.0  0.0  1
KzKz3C97  log  factor  1.000000e+000  1.000000e-003  1.000000e+003  Kz  1.0  0.0  1
KzKz3C98  log  factor  1.000000e+000  1.000000e-003  1.000000e+003  Kz  1.0  0.0  1
KzKz3C99  log  factor  1.000000e+000  1.000000e-003  1.000000e+003  Kz  1.0  0.0  1
KzKz3C100  log  factor  1.000000e+000  1.000000e-003  1.000000e+003  Kz  1.0  0.0  1
KzKz4SS101  log  factor  1.000000e+001  1.000000e-002  1.000000e+003  Kz  1.0  0.0  1
KzKz4SS102  log  factor  1.000000e+001  1.000000e-002  1.000000e+003  Kz  1.0  0.0  1
KzKz4SS103  log  factor  1.000000e+001  1.000000e-002  1.000000e+003  Kz  1.0  0.0  1
KzKz4SS104  log  factor  1.000000e+001  1.000000e-002  1.000000e+003  Kz  1.0  0.0  1
KzKz4SS105  log  factor  1.000000e+001  1.000000e-002  1.000000e+003  Kz  1.0  0.0  1
KzKz4SS106  log  factor  1.000000e+001  1.000000e-002  1.000000e+003  Kz  1.0  0.0  1
KzKz4SS107  log  factor  1.000000e+001  1.000000e-002  1.000000e+003  Kz  1.0  0.0  1
KzKz4SS108  log  factor  1.000000e+001  1.000000e-002  1.000000e+003  Kz  1.0  0.0  1
KzKz4SS109  log  factor  1.000000e+001  1.000000e-002  1.000000e+003  Kz  1.0  0.0  1
KzKz4SS110  log  factor  1.000000e+001  1.000000e-002  1.000000e+003  Kz  1.0  0.0  1
KzKz4SS111  log  factor  1.000000e+001  1.000000e-002  1.000000e+003  Kz  1.0  0.0  1
KzKz4SS112  log  factor  1.000000e+001  1.000000e-002  1.000000e+003  Kz  1.0  0.0  1
KzKz4SS113  log  factor  1.000000e+001  1.000000e-002  1.000000e+003  Kz  1.0  0.0  1
KzKz4SS114  log  factor  1.000000e+001  1.000000e-002  1.000000e+003  Kz  1.0  0.0  1
KzKz4SS115  log  factor  1.000000e+001  1.000000e-002  1.000000e+003  Kz  1.0  0.0  1
KzKz4SS116  log  factor  1.000000e+001  1.000000e-002  1.000000e+003  Kz  1.0  0.0  1
KzKz4SS117  log  factor  1.000000e+001  1.000000e-002  1.000000e+003  Kz  1.0  0.0  1
KzKz4SS118  log  factor  1.000000e+001  1.000000e-002  1.000000e+003  Kz  1.0  0.0  1
KzKz4SS119  log  factor  1.000000e+001  1.000000e-002  1.000000e+003  Kz  1.0  0.0  1
KzKz4SS120  log  factor  1.000000e+001  1.000000e-002  1.000000e+003  Kz  1.0  0.0  1
KzKz4SS121  log  factor  1.000000e+001  1.000000e-002  1.000000e+003  Kz  1.0  0.0  1
KzKz4SS122  log  factor  1.000000e+001  1.000000e-002  1.000000e+003  Kz  1.0  0.0  1
KzKz4SS123  log  factor  1.000000e+001  1.000000e-002  1.000000e+003  Kz  1.0  0.0  1
KzKz4SS124  log  factor  1.000000e+001  1.000000e-002  1.000000e+003  Kz  1.0  0.0  1
KzKz4SS125  log  factor  1.000000e+001  1.000000e-002  1.000000e+003  Kz  1.0  0.0  1
KzKz4SS126  log  factor  1.000000e+001  1.000000e-002  1.000000e+003  Kz  1.0  0.0  1
KzKz4SS127  log  factor  1.000000e+001  1.000000e-002  1.000000e+003  Kz  1.0  0.0  1
KzKz4SS128  log  factor  1.000000e+001  1.000000e-002  1.000000e+003  Kz  1.0  0.0  1
KzKz4SS129  log  factor  1.000000e+001  1.000000e-002  1.000000e+003  Kz  1.0  0.0  1
KzKz4SS130  log  factor  1.000000e+001  1.000000e-002  1.000000e+003  Kz  1.0  0.0  1
KzKz4SS131  log  factor  1.000000e+001  1.000000e-002  1.000000e+003  Kz  1.0  0.0  1
KzKz4SS132  log  factor  1.000000e+001  1.000000e-002  1.000000e+003  Kz  1.0  0.0  1
KzKz4SS133  log  factor  1.000000e+001  1.000000e-002  1.000000e+003  Kz  1.0  0.0  1
KzKz4SS134  log  factor  1.000000e+001  1.000000e-002  1.000000e+003  Kz  1.0  0.0  1
KzKz4SS135  log  factor  1.000000e+001  1.000000e-002  1.000000e+003  Kz  1.0  0.0  1
KzKz4SS136  log  factor  1.000000e+001  1.000000e-002  1.000000e+003  Kz  1.0  0.0  1
KzKz4SS137  log  factor  1.000000e+001  1.000000e-002  1.000000e+003  Kz  1.0  0.0  1
KzKz4SS138  log  factor  1.000000e+001  1.000000e-002  1.000000e+003  Kz  1.0  0.0  1
KzKz4SS139  log  factor  1.000000e+001  1.000000e-002  1.000000e+003  Kz  1.0  0.0  1
KzKz4SS140  log  factor  1.000000e+001  1.000000e-002  1.000000e+003  Kz  1.0  0.0  1
KzKz4SS141  log  factor  1.000000e+001  1.000000e-002  1.000000e+003  Kz  1.0  0.0  1
KzKz4SS142  log  factor  1.000000e+001  1.000000e-002  1.000000e+003  Kz  1.0  0.0  1
KzKz4SS143  log  factor  1.000000e+001  1.000000e-002  1.000000e+003  Kz  1.0  0.0  1
KzKz4SS144  log  factor  1.000000e+001  1.000000e-002  1.000000e+003  Kz  1.0  0.0  1
KzKz4SS145  log  factor  1.000000e+001  1.000000e-002  1.000000e+003  Kz  1.0  0.0  1
KzKz4SS146  log  factor  1.000000e+001  1.000000e-002  1.000000e+003  Kz  1.0  0.0  1
KzKz4C147  log  factor  1.000000e+000  1.000000e-003  1.000000e+003  Kz  1.0  0.0  1
KzKz4C148  log  factor  1.000000e+000  1.000000e-003  1.000000e+003  Kz  1.0  0.0  1
KzKz4C149  log  factor  1.000000e+000  1.000000e-003  1.000000e+003  Kz  1.0  0.0  1
KzKz4C150  log  factor  1.000000e+000  1.000000e-003  1.000000e+003  Kz  1.0  0.0  1
KzKz4C151  log  factor  1.000000e+000  1.000000e-003  1.000000e+003  Kz  1.0  0.0  1
KzKz4C152  log  factor  1.000000e+000  1.000000e-003  1.000000e+003  Kz  1.0  0.0  1
KzKz4C153  log  factor  1.000000e+000  1.000000e-003  1.000000e+003  Kz  1.0  0.0  1
KzKz4C154  log  factor  1.000000e+000  1.000000e-003  1.000000e+003  Kz  1.0  0.0  1
KzKz4C155  log  factor  1.000000e+000  1.000000e-003  1.000000e+003  Kz  1.0  0.0  1
KzKz4C156  log  factor  1.000000e+000  1.000000e-003  1.000000e+003  Kz  1.0  0.0  1
KzKz4C157  log  factor  1.000000e+000  1.000000e-003  1.000000e+003  Kz  1.0  0.0  1
KzKz4C158  log  factor  1.000000e+000  1.000000e-003  1.000000e+003  Kz  1.0  0.0  1
KzKz4C159  log  factor  1.000000e+000  1.000000e-003  1.000000e+003  Kz  1.0  0.0  1
KzKz4C160  log  factor  1.000000e+000  1.000000e-003  1.000000e+003  Kz  1.0  0.0  1
KzKz4C161  log  factor  1.000000e+000  1.000000e-003  1.000000e+003  Kz  1.0  0.0  1
KzKz4C162  log  factor  1.000000e+000  1.000000e-003  1.000000e+003  Kz  1.0  0.0  1
KzKz4C163  log  factor  1.000000e+000  1.000000e-003  1.000000e+003  Kz  1.0  0.0  1
KzKz4C164  log  factor  1.000000e+000  1.000000e-003  1.000000e+003  Kz  1.0  0.0  1
KzKz4C165  log  factor  1.000000e+000  1.000000e-003  1.000000e+003  Kz  1.0  0.0  1