pcf
* control data
restart regularisation
    3093     654       7    3093      15
 8  2   double  point  1  0  0
1.000000e+001  -3.000000e+000  3.000000e-001  1.000000e-002  7 999 lamforgive
1.000000e+001  1.000000e+001  1.000000e-003
1.000000e-001 1 noaui
-1 1.000000e-002  3  3  1.000000e-002  3
0 0 0 1 jcosave noverboserec nojcosaveitn reisaveitn parsaveitn
* singular value decomposition
1
3093 5E-07
0
* parameter groups
Kp     relative   1.000000e-002  0.000000e+000  switch  2.000000e+000  parabolic
Kz     relative   1.000000e-002  0.000000e+000  switch  2.000000e+000  parabolic
RCH relative 0.01 0.01 switch 2.0 parabolic
STRMS relative 0.02 0.02 switch 2.0 parabolic
WETLND relative 0.02 0.02 switch 2.0 parabolic
COAST relative 0.01 0.01 switch 2.0 parabolic
HFB relative 0.01 0.01 switch 2.0 parabolic
* parameter data
Kpx1z1_1   log       factor      1.000    0.690    3.451 Kp        101.430      0      1
Kpx1z1_2   log       factor      1.000    0.824    4.118 Kp         84.990      0      1
Kpx1z1_3   log       factor      1.000    0.833    4.164 Kp         84.060      0      1
Kpx1z1_4   log       factor      1.000    0.602    3.010 Kp        116.270      0      1
Kpx1z1_5   log       factor      1.000    0.857    4.287 Kp         81.640      0      1
Kpx1z1_6   log       factor      1.000    0.830    4.151 Kp         84.320      0      1
Kpx1z1_7   log       factor      1.000    0.834    4.168 Kp         83.970      0      1
Kpx1z1_8   log       factor      1.000    0.800    4.002 Kp         87.450      0      1
Kpx1z1_9   log       factor      1.000    0.742    3.708 Kp         94.380      0      1
Kpx1z1_10  log       factor      1.000    0.718    3.588 Kp         97.560      0      1
Kpx1z1_11  log       factor      1.000    0.777    3.886 Kp         90.060      0      1
Kpx1z1_12  log       factor      1.000    0.802    4.011 Kp         87.250      0      1
Kpx1z1_13  log       factor      1.000    0.818    4.088 Kp         85.610      0      1
Kpx1z1_14  log       factor      1.000    0.737    3.683 Kp         95.030      0      1
Kpx1z1_15  log       factor      1.000    0.743    3.715 Kp         94.200      0      1
Kpx1z1_16  log       factor      1.000    0.783    3.915 Kp         89.410      0      1
Kpx1z1_17  log       factor      1.000    0.774    3.870 Kp         90.430      0      1
Kpx1z1_18  log       factor      1.000    0.767    3.837 Kp         91.210      0      1
Kpx1z1_19  log       factor      1.000    0.750    3.752 Kp         93.280      0      1
Kpx1z1_20  log       factor      1.000    0.760    3.798 Kp         92.160      0      1
Kpx1z1_21  log       factor      1.000    0.775    3.876 Kp         90.310      0      1
Kpx1z1_22  log       factor      1.000    0.735    3.675 Kp         95.250      0      1
Kpx1z1_23  log       factor      1.000    0.787    3.937 Kp         88.890      0      1
Kpx1z1_24  log       factor      1.000    0.822    4.110 Kp         85.160      0      1
Kpx1z1_25  log       factor      1.000    0.673    3.365 Kp        104.000      0      1
Kpx1z1_26  log       factor      1.000    0.637    3.185 Kp        109.880      0      1
Kpx1z1_27  log       factor      1.000    0.566    2.832 Kp        123.570      0      1
Kpx1z1_28  log       factor      1.000    0.607    3.037 Kp        115.230      0      1
Kpx1z1_29  log       factor      1.000    0.639    3.194 Kp        109.590      0      1
Kpx1z1_30  log       factor      1.000    0.630    3.150 Kp        111.110      0      1
Kpx1z1_31  log       factor      1.000    0.630    3.150 Kp        111.110      0      1
Kpx1z1_32  log       factor      1.000    0.630    3.150 Kp        111.110      0      1
Kpx1z1_33  log       factor      1.000    0.884    4.418 Kp         79.220      0      1
Kpx1z1_34  log       factor      1.000    0.843    4.216 Kp         83.020      0      1
Kpx1z1_35  log       factor      1.000    0.826    4.128 Kp         84.780      0      1
Kpx1z1_36  log       factor      1.000    0.735    3.676 Kp         95.200      0      1
Kpx1z1_37  log       factor      1.000    0.778    3.891 Kp         89.950      0      1
Kpx1z1_38  log       factor      1.000    0.667    3.337 Kp        104.870      0      1
Kpx1z1_39  log       factor      1.000    0.797    3.983 Kp         87.870      0      1
Kpx1z1_40  log       factor      1.000    0.811    4.056 Kp         86.300      0      1
Kpx1z1_41  log       factor      1.000    0.630    3.150 Kp        111.110      0      1
Kpx1z1_42  log       factor      1.000    0.630    3.150 Kp        111.110      0      1
Kpx1z1_43  log       factor      1.000    0.831    4.155 Kp         84.230      0      1
Kpx1z1_44  log       factor      1.000    0.788    3.941 Kp         88.820      0      1
Kpx1z1_45  log       factor      1.000    0.637    3.186 Kp        109.840      0      1
Kpx1z1_46  log       factor      1.000    0.839    4.196 Kp         83.410      0      1
Kpx1z1_47  log       factor      1.000    0.826    4.129 Kp         84.770      0      1
Kpx1z1_48  log       factor      1.000    0.838    4.190 Kp         83.530      0      1
Kpx1z1_49  log       factor      1.000    0.851    4.257 Kp         82.220      0      1
Kpx1z1_50  log       factor      1.000    0.855    4.276 Kp         81.860      0      1
Kpx1z1_51  log       factor      1.000    0.813    4.064 Kp         86.120      0      1
Kpx1z1_52  log       factor      1.000    0.518    2.591 Kp        135.080      0      1
Kpx1z1_53  log       factor      1.000    0.599    2.994 Kp        116.900      0      1
Kpx1z2_1   log       factor      1.000    0.549    2.747 Kp        127.400      0      1
Kpx1z2_2   log       factor      1.000    0.556    2.782 Kp        125.830      0      1
Kpx1z2_3   log       factor      1.000    0.542    2.710 Kp        129.140      0      1
Kpx1z2_4   log       factor      1.000    0.542    2.709 Kp        129.200      0      1
Kpx1z2_5   log       factor      1.000    0.999    5.130 Kp         68.220      0      1
Kpx1z2_6   log       factor      1.000    0.531    2.654 Kp        131.880      0      1
Kpx1z2_7   log       factor      1.000    0.942    4.712 Kp         74.280      0      1
Kpx1z2_8   log       factor      1.000    0.958    4.792 Kp         73.040      0      1
Kpx1z2_9   log       factor      1.000    0.999    4.996 Kp         70.050      0      1
Kpx1z2_10  log       factor      1.000    0.539    2.694 Kp        129.920      0      1
Kpx1z2_11  log       factor      1.000    0.544    2.718 Kp        128.770      0      1
Kpx1z2_12  log       factor      1.000    0.515    2.573 Kp        136.050      0      1
Kpx1z2_13  log       factor      1.000    0.517    2.585 Kp        135.390      0      1
Kpx1z2_14  log       factor      1.000    0.501    2.504 Kp        139.750      0      1
Kpx1z2_15  log       factor      1.000    0.520    2.600 Kp        134.610      0      1
Kpx1z2_16  log       factor      1.000    0.446    2.228 Kp        157.100      0      1
Kpx1z2_17  log       factor      1.000    0.630    3.150 Kp        111.110      0      1
Kpx1z2_18  log       factor      1.000    0.554    2.770 Kp        126.340      0      1
Kpx1z2_19  log       factor      1.000    0.536    2.682 Kp        130.490      0      1
Kpx1z2_20  log       factor      1.000    0.528    2.638 Kp        132.670      0      1
Kpx1z2_21  log       factor      1.000    0.525    2.626 Kp        133.280      0      1
Kpx1z2_22  log       factor      1.000    0.533    2.666 Kp        131.290      0      1
Kpx1z2_23  log       factor      1.000    0.512    2.561 Kp        136.660      0      1
Kpx1z2_24  log       factor      1.000    0.526    2.631 Kp        133.040      0      1
Kpx1z2_25  log       factor      1.000    0.553    2.766 Kp        126.550      0      1
Kpx1z2_26  log       factor      1.000    0.579    2.897 Kp        120.810      0      1
Kpx1z2_27  log       factor      1.000    0.630    3.150 Kp        111.110      0      1
Kpx1z2_28  log       factor      1.000    0.630    3.150 Kp        111.110      0      1
Kpx1z2_29  log       factor      1.000    0.999    7.071 Kp         49.500      0      1
Kpx1z2_30  log       factor      1.000    0.541    2.706 Kp        129.340      0      1
Kpx1z2_31  log       factor      1.000    0.537    2.685 Kp        130.360      0      1
Kpx1z2_32  log       factor      1.000    0.518    2.588 Kp        135.220      0      1
Kpx1z2_33  log       factor      1.000    0.525    2.626 Kp        133.280      0      1
Kpx1z2_34  log       factor      1.000    0.538    2.688 Kp        130.230      0      1
Kpx1z2_35  log       factor      1.000    0.558    2.792 Kp        125.370      0      1
Kpx1z2_36  log       factor      1.000    0.611    3.056 Kp        114.520      0      1
Kpx1z2_37  log       factor      1.000    0.630    3.150 Kp        111.110      0      1
Kpx1z2_38  log       factor      1.000    0.630    3.150 Kp        111.110      0      1
Kpx1z2_39  log       factor      1.000    0.630    3.150 Kp        111.110      0      1
Kpx1z2_40  log       factor      1.000    0.999    5.673 Kp         61.700      0      1
Kpx1z2_41  log       factor      1.000    0.545    2.725 Kp        128.440      0      1
Kpx1z2_42  log       factor      1.000    0.551    2.755 Kp        127.020      0      1
Kpx1z2_43  log       factor      1.000    0.549    2.743 Kp        127.600      0      1
Kpx1z2_44  log       factor      1.000    0.540    2.701 Kp        129.600      0      1
Kpx1z2_45  log       factor      1.000    0.536    2.682 Kp        130.520      0      1
Kpx1z2_46  log       factor      1.000    0.540    2.699 Kp        129.660      0      1
Kpx1z2_47  log       factor      1.000    0.556    2.782 Kp        125.820      0      1
Kpx1z2_48  log       factor      1.000    0.594    2.971 Kp        117.800      0      1
Kpx1z2_49  log       factor      1.000    0.730    3.652 Kp         95.830      0      1
Kpx1z2_50  log       factor      1.000    0.630    3.150 Kp        111.110      0      1
Kpx1z2_51  log       factor      1.000    0.630    3.150 Kp        111.110      0      1
Kpx1z2_52  log       factor      1.000    0.630    3.150 Kp        111.110      0      1
Kpx1z2_53  log       factor      1.000    0.630    3.150 Kp        111.110      0      1
Kpx1z2_54  log       factor      1.000    0.709    3.544 Kp         98.750      0      1
Kpx1z2_55  log       factor      1.000    0.823    4.116 Kp         85.030      0      1
Kpx1z2_56  log       factor      1.000    0.696    3.481 Kp        100.550      0      1
Kpx1z2_57  log       factor      1.000    0.653    3.265 Kp        107.210      0      1
Kpx1z2_58  log       factor      1.000    0.565    2.824 Kp        123.930      0      1
Kpx1z2_59  log       factor      1.000    0.558    2.789 Kp        125.510      0      1
Kpx1z2_60  log       factor      1.000    0.563    2.814 Kp        124.360      0      1
Kpx1z2_61  log       factor      1.000    0.563    2.813 Kp        124.430      0      1
Kpx1z2_62  log       factor      1.000    0.539    2.696 Kp        129.810      0      1
Kpx1z2_63  log       factor      1.000    0.539    2.696 Kp        129.830      0      1
Kpx1z2_64  log       factor      1.000    0.542    2.708 Kp        129.270      0      1
Kpx1z2_65  log       factor      1.000    0.563    2.813 Kp        124.420      0      1
Kpx1z2_66  log       factor      1.000    0.609    3.047 Kp        114.850      0      1
Kpx1z2_67  log       factor      1.000    0.630    3.150 Kp        111.110      0      1
Kpx1z2_68  log       factor      1.000    0.647    3.233 Kp        108.250      0      1
Kpx1z2_69  log       factor      1.000    0.630    3.150 Kp        111.110      0      1
Kpx1z2_70  log       factor      1.000    0.630    3.150 Kp        111.110      0      1
Kpx1z2_71  log       factor      1.000    0.630    3.150 Kp        111.110      0      1
Kpx1z2_72  log       factor      1.000    0.630    3.150 Kp        111.110      0      1
Kpx1z2_73  log       factor      1.000    0.899    4.494 Kp         77.890      0      1
Kpx1z2_74  log       factor      1.000    0.999    4.996 Kp         70.060      0      1
Kpx1z2_75  log       factor      1.000    0.903    4.516 Kp         77.500      0      1
Kpx1z2_76  log       factor      1.000    0.650    3.252 Kp        107.610      0      1
Kpx1z2_77  log       factor      1.000    0.591    2.957 Kp        118.360      0      1
Kpx1z2_78  log       factor      1.000    0.615    3.077 Kp        113.750      0      1
Kpx1z2_79  log       factor      1.000    0.623    3.116 Kp        112.340      0      1
Kpx1z2_80  log       factor      1.000    0.602    3.010 Kp        116.280      0      1
Kpx1z2_81  log       factor      1.000    0.552    2.761 Kp        126.750      0      1
Kpx1z2_82  log       factor      1.000    0.545    2.723 Kp        128.540      0      1
Kpx1z2_83  log       factor      1.000    0.543    2.716 Kp        128.850      0      1
Kpx1z2_84  log       factor      1.000    0.551    2.755 Kp        127.050      0      1
Kpx1z2_85  log       factor      1.000    0.576    2.878 Kp        121.600      0      1
Kpx1z2_86  log       factor      1.000    0.624    3.119 Kp        112.230      0      1
Kpx1z2_87  log       factor      1.000    0.648    3.238 Kp        108.100      0      1
Kpx1z2_88  log       factor      1.000    0.999    5.419 Kp         64.590      0      1
Kpx1z2_89  log       factor      1.000    0.882    4.411 Kp         79.340      0      1
Kpx1z2_90  log       factor      1.000    0.593    2.965 Kp        118.040      0      1
Kpx1z2_91  log       factor      1.000    0.630    3.150 Kp        111.110      0      1
Kpx1z2_92  log       factor      1.000    0.566    2.828 Kp        123.750      0      1
Kpx1z2_93  log       factor      1.000    0.999    4.996 Kp         70.050      0      1
Kpx1z2_94  log       factor      1.000    0.732    3.660 Kp         95.630      0      1
Kpx1z2_95  log       factor      1.000    0.642    3.212 Kp        108.950      0      1
Kpx1z2_96  log       factor      1.000    0.649    3.246 Kp        107.820      0      1
Kpx1z2_97  log       factor      1.000    0.655    3.274 Kp        106.900      0      1
Kpx1z2_98  log       factor      1.000    0.631    3.157 Kp        110.860      0      1
Kpx1z2_99  log       factor      1.000    0.610    3.051 Kp        114.710      0      1
Kpx1z2_100 log       factor      1.000    0.598    2.991 Kp        117.020      0      1
Kpx1z2_101 log       factor      1.000    0.566    2.829 Kp        123.700      0      1
Kpx1z2_102 log       factor      1.000    0.571    2.854 Kp        122.630      0      1
Kpx1z2_103 log       factor      1.000    0.589    2.946 Kp        118.810      0      1
Kpx1z2_104 log       factor      1.000    0.622    3.110 Kp        112.530      0      1
Kpx1z2_105 log       factor      1.000    0.999    5.620 Kp         62.280      0      1
Kpx1z2_106 log       factor      1.000    0.999    7.266 Kp         48.170      0      1
Kpx1z2_107 log       factor      1.000    0.999    7.334 Kp         47.720      0      1
Kpx1z2_108 log       factor      1.000    0.630    3.150 Kp        111.110      0      1
Kpx1z2_109 log       factor      1.000    0.630    3.150 Kp        111.110      0      1
Kpx1z2_110 log       factor      1.000    0.489    2.444 Kp        143.210      0      1
Kpx1z2_111 log       factor      1.000    0.495    2.474 Kp        141.470      0      1
Kpx1z2_112 log       factor      1.000    0.509    2.545 Kp        137.520      0      1
Kpx1z2_113 log       factor      1.000    0.541    2.707 Kp        129.310      0      1
Kpx1z2_114 log       factor      1.000    0.567    2.834 Kp        123.490      0      1
Kpx1z2_115 log       factor      1.000    0.672    3.358 Kp        104.240      0      1
Kpx1z2_116 log       factor      1.000    0.671    3.355 Kp        104.320      0      1
Kpx1z2_117 log       factor      1.000    0.682    3.409 Kp        102.670      0      1
Kpx1z2_118 log       factor      1.000    0.675    3.375 Kp        103.700      0      1
Kpx1z2_119 log       factor      1.000    0.645    3.223 Kp        108.590      0      1
Kpx1z2_120 log       factor      1.000    0.632    3.161 Kp        110.740      0      1
Kpx1z2_121 log       factor      1.000    0.639    3.193 Kp        109.620      0      1
Kpx1z2_122 log       factor      1.000    0.653    3.263 Kp        107.260      0      1
Kpx1z2_123 log       factor      1.000    0.656    3.278 Kp        106.770      0      1
Kpx1z2_124 log       factor      1.000    0.662    3.311 Kp        105.720      0      1
Kpx1z2_125 log       factor      1.000    0.999    7.508 Kp         46.620      0      1
Kpx1z2_126 log       factor      1.000    0.999    7.299 Kp         47.950      0      1
Kpx1z2_127 log       factor      1.000    0.999    7.231 Kp         48.400      0      1
Kpx1z2_128 log       factor      1.000    0.796    3.981 Kp         87.920      0      1
Kpx1z2_129 log       factor      1.000    0.630    3.150 Kp        111.110      0      1
Kpx1z2_130 log       factor      1.000    0.479    2.395 Kp        146.150      0      1
Kpx1z2_131 log       factor      1.000    0.485    2.423 Kp        144.460      0      1
Kpx1z2_132 log       factor      1.000    0.498    2.490 Kp        140.540      0      1
Kpx1z2_133 log       factor      1.000    0.515    2.573 Kp        136.050      0      1
Kpx1z2_134 log       factor      1.000    0.546    2.729 Kp        128.240      0      1
Kpx1z2_135 log       factor      1.000    0.630    3.150 Kp        111.110      0      1
Kpx1z2_136 log       factor      1.000    0.687    3.434 Kp        101.920      0      1
Kpx1z2_137 log       factor      1.000    0.720    3.599 Kp         97.250      0      1
Kpx1z2_138 log       factor      1.000    0.704    3.521 Kp         99.410      0      1
Kpx1z2_139 log       factor      1.000    0.628    3.140 Kp        111.480      0      1
Kpx1z2_140 log       factor      1.000    0.724    3.619 Kp         96.710      0      1
Kpx1z2_141 log       factor      1.000    0.678    3.390 Kp        103.230      0      1
Kpx1z2_142 log       factor      1.000    0.717    3.586 Kp         97.590      0      1
Kpx1z2_143 log       factor      1.000    0.677    3.385 Kp        103.390      0      1
Kpx1z2_144 log       factor      1.000    0.720    3.602 Kp         97.160      0      1
Kpx1z2_145 log       factor      1.000    0.726    3.629 Kp         96.450      0      1
Kpx1z2_146 log       factor      1.000    0.712    3.558 Kp         98.380      0      1
Kpx1z2_147 log       factor      1.000    0.999    6.942 Kp         50.420      0      1
Kpx1z2_148 log       factor      1.000    0.999    7.125 Kp         49.120      0      1
Kpx1z2_149 log       factor      1.000    0.999    7.098 Kp         49.310      0      1
Kpx1z2_150 log       factor      1.000    0.999    6.254 Kp         55.960      0      1
Kpx1z2_151 log       factor      1.000    0.496    2.478 Kp        141.270      0      1
Kpx1z2_152 log       factor      1.000    0.510    2.550 Kp        137.280      0      1
Kpx1z2_153 log       factor      1.000    0.527    2.634 Kp        132.870      0      1
Kpx1z2_154 log       factor      1.000    0.663    3.315 Kp        105.580      0      1
Kpx1z2_155 log       factor      1.000    0.632    3.160 Kp        110.760      0      1
Kpx1z2_156 log       factor      1.000    0.706    3.528 Kp         99.220      0      1
Kpx1z2_157 log       factor      1.000    0.700    3.502 Kp         99.940      0      1
Kpx1z2_158 log       factor      1.000    0.700    3.499 Kp        100.030      0      1
Kpx1z2_159 log       factor      1.000    0.711    3.553 Kp         98.510      0      1
Kpx1z2_160 log       factor      1.000    0.711    3.557 Kp         98.400      0      1
Kpx1z2_161 log       factor      1.000    0.710    3.548 Kp         98.660      0      1
Kpx1z2_162 log       factor      1.000    0.646    3.231 Kp        108.310      0      1
Kpx1z2_163 log       factor      1.000    0.630    3.150 Kp        111.110      0      1
Kpx1z2_164 log       factor      1.000    0.934    4.669 Kp         74.970      0      1
Kpx1z2_165 log       factor      1.000    0.630    3.150 Kp        111.110      0      1
Kpx1z2_166 log       factor      1.000    0.630    3.150 Kp        111.110      0      1
Kpx1z2_167 log       factor      1.000    0.575    2.877 Kp        121.640      0      1
Kpx1z2_168 log       factor      1.000    0.579    2.897 Kp        120.820      0      1
Kpx1z2_169 log       factor      1.000    0.623    3.115 Kp        112.370      0      1
Kpx1z2_170 log       factor      1.000    0.622    3.108 Kp        112.630      0      1
Kpx1z2_171 log       factor      1.000    0.638    3.188 Kp        109.780      0      1
Kpx1z2_172 log       factor      1.000    0.630    3.150 Kp        111.110      0      1
Kpx1z2_173 log       factor      1.000    0.601    3.005 Kp        116.480      0      1
Kpx1z2_174 log       factor      1.000    0.714    3.569 Kp         98.070      0      1
Kpx1z2_175 log       factor      1.000    0.710    3.549 Kp         98.610      0      1
Kpx1z2_176 log       factor      1.000    0.712    3.562 Kp         98.260      0      1
Kpx1z2_177 log       factor      1.000    0.630    3.150 Kp        111.110      0      1
Kpx1z2_178 log       factor      1.000    0.590    2.952 Kp        118.570      0      1
Kpx1z2_179 log       factor      1.000    0.615    3.075 Kp        113.830      0      1
Kpx1z2_180 log       factor      1.000    0.635    3.175 Kp        110.250      0      1
Kpx1z2_181 log       factor      1.000    0.635    3.177 Kp        110.170      0      1
Kpx1z2_182 log       factor      1.000    0.500    2.500 Kp        140.000      0      1
Kpx1z2_183 log       factor      1.000    0.630    3.150 Kp        111.110      0      1
Kpx1z2_184 log       factor      1.000    0.577    2.886 Kp        121.270      0      1
Kpx1z2_185 log       factor      1.000    0.999   35.000 Kp         10.000      0      1
Kpx1z2_186 log       factor      1.000    0.630    3.150 Kp        111.110      0      1
Kpx1z2_187 log       factor      1.000    0.786    3.928 Kp         89.110      0      1
Kpx1z2_188 log       factor      1.000    0.685    3.425 Kp        102.190      0      1
Kpx1z2_189 log       factor      1.000    0.591    2.953 Kp        118.540      0      1
Kpx1z2_190 log       factor      1.000    0.709    3.547 Kp         98.680      0      1
Kpx1z3_1   log       factor      1.000    0.999    6.962 Kp         50.270      0      1
Kpx1z3_2   log       factor      1.000    0.999    7.182 Kp         48.730      0      1
Kpx1z3_3   log       factor      1.000    0.999    6.943 Kp         50.410      0      1
Kpx1z4_1   log       factor      1.000    0.794    3.969 Kp         88.190      0      1
Kpx1z4_2   log       factor      1.000    0.695    3.476 Kp        100.680      0      1
Kpx1z4_3   log       factor      1.000    0.767    3.836 Kp         91.240      0      1
Kpx1z4_4   log       factor      1.000    0.508    2.540 Kp        137.780      0      1
Kpx1z4_5   log       factor      1.000    0.772    3.858 Kp         90.730      0      1
Kpx1z4_6   log       factor      1.000    0.529    2.643 Kp        132.410      0      1
Kpx1z4_7   log       factor      1.000    0.694    3.472 Kp        100.810      0      1
Kpx1z4_8   log       factor      1.000    0.354    1.769 Kp        197.800      0      1
Kpx1z4_9   log       factor      1.000    0.613    3.067 Kp        114.110      0      1
Kpx1z4_10  log       factor      1.000    0.517    2.585 Kp        135.420      0      1
Kpx1z4_11  log       factor      1.000    0.329    1.644 Kp        212.920      0      1
Kpx1z4_12  log       factor      1.000    0.680    3.400 Kp        102.930      0      1
Kpx1z4_13  log       factor      1.000    0.454    2.271 Kp        154.110      0      1
Kpx1z4_14  log       factor      1.000    0.312    1.560 Kp        224.320      0      1
Kpx1z4_15  log       factor      1.000    0.552    2.758 Kp        126.920      0      1
Kpx1z4_16  log       factor      1.000    0.488    2.440 Kp        143.430      0      1
Kpx1z4_17  log       factor      1.000    0.630    3.150 Kp        111.110      0      1
Kpx1z4_18  log       factor      1.000    0.497    2.487 Kp        140.710      0      1
Kpx1z4_19  log       factor      1.000    0.557    2.783 Kp        125.770      0      1
Kpx1z4_20  log       factor      1.000    0.330    1.650 Kp        212.160      0      1
Kpx1z4_21  log       factor      1.000    0.447    2.235 Kp        156.610      0      1
Kpx1z4_22  log       factor      1.000    0.351    1.755 Kp        199.460      0      1
Kpx1z4_23  log       factor      1.000    0.340    1.698 Kp        206.110      0      1
Kpx1z4_24  log       factor      1.000    0.582    2.908 Kp        120.350      0      1
Kpx1z4_25  log       factor      1.000    0.265    1.326 Kp        263.930      0      1
Kpx1z4_26  log       factor      1.000    0.610    3.052 Kp        114.680      0      1
Kpx1z4_27  log       factor      1.000    0.384    1.920 Kp        182.330      0      1
Kpx1z4_28  log       factor      1.000    0.444    2.221 Kp        157.600      0      1
Kpx1z4_29  log       factor      1.000    0.522    2.612 Kp        134.000      0      1
Kpx1z4_30  log       factor      1.000    0.480    2.402 Kp        145.710      0      1
Kpx1z4_31  log       factor      1.000    0.642    3.212 Kp        108.960      0      1
Kpx1z4_32  log       factor      1.000    0.666    3.329 Kp        105.150      0      1
Kpx1z4_33  log       factor      1.000    0.445    2.225 Kp        157.320      0      1
Kpx1z4_34  log       factor      1.000    0.569    2.847 Kp        122.940      0      1
Kpx1z4_35  log       factor      1.000    0.485    2.423 Kp        144.450      0      1
Kpx1z4_36  log       factor      1.000    0.277    1.383 Kp        253.140      0      1
Kpx1z4_37  log       factor      1.000    0.428    2.142 Kp        163.410      0      1
Kpx1z4_38  log       factor      1.000    0.220    1.098 Kp        318.780      0      1
Kpx1z4_39  log       factor      1.000    0.426    2.130 Kp        164.330      0      1
Kpx1z4_40  log       factor      1.000    0.241    1.204 Kp        290.750      0      1
Kpx1z4_41  log       factor      1.000    0.220    1.099 Kp        318.560      0      1
Kpx1z4_42  log       factor      1.000    0.219    1.093 Kp        320.200      0      1
Kpx1z5_1   log       factor      1.000    0.910    4.549 Kp         76.940      0      1
Kpx1z5_2   log       factor      1.000    0.415    2.074 Kp        168.760      0      1
Kpx1z5_3   log       factor      1.000    0.447    2.237 Kp        156.490      0      1
Kpx1z5_4   log       factor      1.000    0.430    2.150 Kp        162.800      0      1
Kpx1z5_5   log       factor      1.000    0.441    2.205 Kp        158.730      0      1
Kpx1z5_6   log       factor      1.000    0.410    2.052 Kp        170.550      0      1
Kpx1z5_7   log       factor      1.000    0.415    2.074 Kp        168.780      0      1
Kpx1z5_8   log       factor      1.000    0.446    2.229 Kp        157.000      0      1
Kpx1z5_9   log       factor      1.000    0.461    2.306 Kp        151.760      0      1
Kpx1z5_10  log       factor      1.000    0.501    2.506 Kp        139.660      0      1
Kpx1z5_11  log       factor      1.000    0.549    2.746 Kp        127.450      0      1
Kpx1z5_12  log       factor      1.000    0.447    2.234 Kp        156.640      0      1
Kpx1z5_13  log       factor      1.000    0.452    2.262 Kp        154.760      0      1
Kpx1z5_14  log       factor      1.000    0.453    2.266 Kp        154.470      0      1
Kpx1z5_15  log       factor      1.000    0.492    2.461 Kp        142.230      0      1
Kpx1z5_16  log       factor      1.000    0.451    2.254 Kp        155.310      0      1
Kpx1z5_17  log       factor      1.000    0.571    2.856 Kp        122.570      0      1
Kpx1z5_18  log       factor      1.000    0.538    2.688 Kp        130.200      0      1
Kpx1z5_19  log       factor      1.000    0.508    2.542 Kp        137.680      0      1
Kpx1z5_20  log       factor      1.000    0.509    2.547 Kp        137.400      0      1
Kpx1z5_21  log       factor      1.000    0.498    2.492 Kp        140.470      0      1
Kpx1z5_22  log       factor      1.000    0.483    2.414 Kp        145.010      0      1
Kpx1z5_23  log       factor      1.000    0.583    2.913 Kp        120.140      0      1
Kpx1z5_24  log       factor      1.000    0.544    2.722 Kp        128.570      0      1
Kpx1z5_25  log       factor      1.000    0.458    2.288 Kp        152.990      0      1
Kpx1z5_26  log       factor      1.000    0.580    2.902 Kp        120.610      0      1
Kpx1z5_27  log       factor      1.000    0.583    2.913 Kp        120.150      0      1
Kpx1z5_28  log       factor      1.000    0.630    3.150 Kp        111.110      0      1
Kpx1z5_29  log       factor      1.000    0.630    3.150 Kp        111.110      0      1
Kpx1z5_30  log       factor      1.000    0.587    2.934 Kp        119.310      0      1
Kpx1z6_1   log       factor      1.000    0.428    2.141 Kp        163.440      0      1
Kpx1z6_2   log       factor      1.000    0.489    2.447 Kp        143.060      0      1
Kpx1z6_3   log       factor      1.000    0.324    1.622 Kp        215.800      0      1
Kpx1z6_4   log       factor      1.000    0.623    3.114 Kp        112.410      0      1
Kpx1z6_5   log       factor      1.000    0.401    2.004 Kp        174.660      0      1