pcf
* control data
restart regularisation
    250   3747      1      0     15  
    1    3 double point  1    0  0
   10.000       -3.0000      0.3  0.03  10     999  lamforgive
      0.100  10.0  0.001
 0.1      1
    50  0.005  4  4  0.005  4
1  1  1  1 nojcosaveitn reisaveitn
* singular value decomposition
     1
   250  5.0000000E-07
     0
* svd assist
BaseObsPP_r5.pst
BaseObsPP_r5.jco
    1    2    0    1    0
* parameter groups
 pargp absolute    0.015  0.0  switch    2.0 parabolic
* parameter data
par1         none  relative   10.000     1.0e-20  1.0e20  pargp  1.0  -10.000      1
par2         none  relative   10.000     1.0e-20  1.0e20  pargp  1.0  -10.000      1
par3         none  relative   10.000     1.0e-20  1.0e20  pargp  1.0  -10.000      1
par4         none  relative   10.000     1.0e-20  1.0e20  pargp  1.0  -10.000      1
par5         none  relative   10.000     1.0e-20  1.0e20  pargp  1.0  -10.000      1
par6         none  relative   10.000     1.0e-20  1.0e20  pargp  1.0  -10.000      1
par7         none  relative   10.000     1.0e-20  1.0e20  pargp  1.0  -10.000      1
par8         none  relative   10.000     1.0e-20  1.0e20  pargp  1.0  -10.000      1
par9         none  relative   10.000     1.0e-20  1.0e20  pargp  1.0  -10.000      1
par10        none  relative   10.000     1.0e-20  1.0e20  pargp  1.0  -10.000      1
par11        none  relative   10.000     1.0e-20  1.0e20  pargp  1.0  -10.000      1
par12        none  relative   10.000     1.0e-20  1.0e20  pargp  1.0  -10.000      1
par13        none  relative   10.000     1.0e-20  1.0e20  pargp  1.0  -10.000      1
par14        none  relative   10.000     1.0e-20  1.0e20  pargp  1.0  -10.000      1
par15        none  relative   10.000     1.0e-20  1.0e20  pargp  1.0  -10.000      1
par16        none  relative   10.000     1.0e-20  1.0e20  pargp  1.0  -10.000      1
par17        none  relative   10.000     1.0e-20  1.0e20  pargp  1.0  -10.000      1
par18        none  relative   10.000     1.0e-20  1.0e20  pargp  1.0  -10.000      1
par19        none  relative   10.000     1.0e-20  1.0e20  pargp  1.0  -10.000      1
par20        none  relative   10.000     1.0e-20  1.0e20  pargp  1.0  -10.000      1
par21        none  relative   10.000     1.0e-20  1.0e20  pargp  1.0  -10.000      1
par22        none  relative   10.000     1.0e-20  1.0e20  pargp  1.0  -10.000      1
par23        none  relative   10.000     1.0e-20  1.0e20  pargp  1.0  -10.000      1
par24        none  relative   10.000     1.0e-20  1.0e20  pargp  1.0  -10.000      1
par25        none  relative   10.000     1.0e-20  1.0e20  pargp  1.0  -10.000      1
par26        none  relative   10.000     1.0e-20  1.0e20  pargp  1.0  -10.000      1
par27        none  relative   10.000     1.0e-20  1.0e20  pargp  1.0  -10.000      1
par28        none  relative   10.000     1.0e-20  1.0e20  pargp  1.0  -10.000      1
par29        none  relative   10.000     1.0e-20  1.0e20  pargp  1.0  -10.000      1
par30        none  relative   10.000     1.0e-20  1.0e20  pargp  1.0  -10.000      1
par31        none  relative   10.000     1.0e-20  1.0e20  pargp  1.0  -10.000      1
par32        none  relative   10.000     1.0e-20  1.0e20  pargp  1.0  -10.000      1
par33        none  relative   10.000     1.0e-20  1.0e20  pargp  1.0  -10.000      1
par34        none  relative   10.000     1.0e-20  1.0e20  pargp  1.0  -10.000      1
par35        none  relative   10.000     1.0e-20  1.0e20  pargp  1.0  -10.000      1
par36        none  relative   10.000     1.0e-20  1.0e20  pargp  1.0  -10.000      1
par37        none  relative   10.000     1.0e-20  1.0e20  pargp  1.0  -10.000      1
par38        none  relative   10.000     1.0e-20  1.0e20  pargp  1.0  -10.000      1
par39        none  relative   10.000     1.0e-20  1.0e20  pargp  1.0  -10.000      1
par40        none  relative   10.000     1.0e-20  1.0e20  pargp  1.0  -10.000      1
par41        none  relative   10.000     1.0e-20  1.0e20  pargp  1.0  -10.000      1
par42        none  relative   10.000     1.0e-20  1.0e20  pargp  1.0  -10.000      1
par43        none  relative   10.000     1.0e-20  1.0e20  pargp  1.0  -10.000      1
par44        none  relative   10.000     1.0e-20  1.0e20  pargp  1.0  -10.000      1
par45        none  relative   10.000     1.0e-20  1.0e20  pargp  1.0  -10.000      1
par46        none  relative   10.000     1.0e-20  1.0e20  pargp  1.0  -10.000      1
par47        none  relative   10.000     1.0e-20  1.0e20  pargp  1.0  -10.000      1
par48        none  relative   10.000     1.0e-20  1.0e20  pargp  1.0  -10.000      1
par49        none  relative   10.000     1.0e-20  1.0e20  pargp  1.0  -10.000      1
par50        none  relative   10.000     1.0e-20  1.0e20  pargp  1.0  -10.000      1
par51        none  relative   10.000     1.0e-20  1.0e20  pargp  1.0  -10.000      1
par52        none  relative   10.000     1.0e-20  1.0e20  pargp  1.0  -10.000      1
par53        none  relative   10.000     1.0e-20  1.0e20  pargp  1.0  -10.000      1
par54        none  relative   10.000     1.0e-20  1.0e20  pargp  1.0  -10.000      1
par55        none  relative   10.000     1.0e-20  1.0e20  pargp  1.0  -10.000      1
par56        none  relative   10.000     1.0e-20  1.0e20  pargp  1.0  -10.000      1
par57        none  relative   10.000     1.0e-20  1.0e20  pargp  1.0  -10.000      1
par58        none  relative   10.000     1.0e-20  1.0e20  pargp  1.0  -10.000      1
par59        none  relative   10.000     1.0e-20  1.0e20  pargp  1.0  -10.000      1
par60        none  relative   10.000     1.0e-20  1.0e20  pargp  1.0  -10.000      1
par61        none  relative   10.000     1.0e-20  1.0e20  pargp  1.0  -10.000      1
par62        none  relative   10.000     1.0e-20  1.0e20  pargp  1.0  -10.000      1
par63        none  relative   10.000     1.0e-20  1.0e20  pargp  1.0  -10.000      1
par64        none  relative   10.000     1.0e-20  1.0e20  pargp  1.0  -10.000      1
par65        none  relative   10.000     1.0e-20  1.0e20  pargp  1.0  -10.000      1
par66        none  relative   10.000     1.0e-20  1.0e20  pargp  1.0  -10.000      1
par67        none  relative   10.000     1.0e-20  1.0e20  pargp  1.0  -10.000      1
par68        none  relative   10.000     1.0e-20  1.0e20  pargp  1.0  -10.000      1
par69        none  relative   10.000     1.0e-20  1.0e20  pargp  1.0  -10.000      1
par70        none  relative   10.000     1.0e-20  1.0e20  pargp  1.0  -10.000      1
par71        none  relative   10.000     1.0e-20  1.0e20  pargp  1.0  -10.000      1
par72        none  relative   10.000     1.0e-20  1.0e20  pargp  1.0  -10.000      1
par73        none  relative   10.000     1.0e-20  1.0e20  pargp  1.0  -10.000      1
par74        none  relative   10.000     1.0e-20  1.0e20  pargp  1.0  -10.000      1
par75        none  relative   10.000     1.0e-20  1.0e20  pargp  1.0  -10.000      1
par76        none  relative   10.000     1.0e-20  1.0e20  pargp  1.0  -10.000      1
par77        none  relative   10.000     1.0e-20  1.0e20  pargp  1.0  -10.000      1
par78        none  relative   10.000     1.0e-20  1.0e20  pargp  1.0  -10.000      1
par79        none  relative   10.000     1.0e-20  1.0e20  pargp  1.0  -10.000      1
par80        none  relative   10.000     1.0e-20  1.0e20  pargp  1.0  -10.000      1
par81        none  relative   10.000     1.0e-20  1.0e20  pargp  1.0  -10.000      1
par82        none  relative   10.000     1.0e-20  1.0e20  pargp  1.0  -10.000      1
par83        none  relative   10.000     1.0e-20  1.0e20  pargp  1.0  -10.000      1
par84        none  relative   10.000     1.0e-20  1.0e20  pargp  1.0  -10.000      1
par85        none  relative   10.000     1.0e-20  1.0e20  pargp  1.0  -10.000      1
par86        none  relative   10.000     1.0e-20  1.0e20  pargp  1.0  -10.000      1
par87        none  relative   10.000     1.0e-20  1.0e20  pargp  1.0  -10.000      1
par88        none  relative   10.000     1.0e-20  1.0e20  pargp  1.0  -10.000      1
par89        none  relative   10.000     1.0e-20  1.0e20  pargp  1.0  -10.000      1
par90        none  relative   10.000     1.0e-20  1.0e20  pargp  1.0  -10.000      1
par91        none  relative   10.000     1.0e-20  1.0e20  pargp  1.0  -10.000      1
par92        none  relative   10.000     1.0e-20  1.0e20  pargp  1.0  -10.000      1
par93        none  relative   10.000     1.0e-20  1.0e20  pargp  1.0  -10.000      1
par94        none  relative   10.000     1.0e-20  1.0e20  pargp  1.0  -10.000      1
par95        none  relative   10.000     1.0e-20  1.0e20  pargp  1.0  -10.000      1
par96        none  relative   10.000     1.0e-20  1.0e20  pargp  1.0  -10.000      1
par97        none  relative   10.000     1.0e-20  1.0e20  pargp  1.0  -10.000      1
par98        none  relative   10.000     1.0e-20  1.0e20  pargp  1.0  -10.000      1
par99        none  relative   10.000     1.0e-20  1.0e20  pargp  1.0  -10.000      1
par100       none  relative   10.000     1.0e-20  1.0e20  pargp  1.0  -10.000      1
par101       none  relative   10.000     1.0e-20  1.0e20  pargp  1.0  -10.000      1
par102       none  relative   10.000     1.0e-20  1.0e20  pargp  1.0  -10.000      1
par103       none  relative   10.000     1.0e-20  1.0e20  pargp  1.0  -10.000      1
par104       none  relative   10.000     1.0e-20  1.0e20  pargp  1.0  -10.000      1
par105       none  relative   10.000     1.0e-20  1.0e20  pargp  1.0  -10.000      1
par106       none  relative   10.000     1.0e-20  1.0e20  pargp  1.0  -10.000      1
par107       none  relative   10.000     1.0e-20  1.0e20  pargp  1.0  -10.000      1
par108       none  relative   10.000     1.0e-20  1.0e20  pargp  1.0  -10.000      1
par109       none  relative   10.000     1.0e-20  1.0e20  pargp  1.0  -10.000      1
par110       none  relative   10.000     1.0e-20  1.0e20  pargp  1.0  -10.000      1
par111       none  relative   10.000     1.0e-20  1.0e20  pargp  1.0  -10.000      1
par112       none  relative   10.000     1.0e-20  1.0e20  pargp  1.0  -10.000      1
par113       none  relative   10.000     1.0e-20  1.0e20  pargp  1.0  -10.000      1
par114       none  relative   10.000     1.0e-20  1.0e20  pargp  1.0  -10.000      1
par115       none  relative   10.000     1.0e-20  1.0e20  pargp  1.0  -10.000      1
par116       none  relative   10.000     1.0e-20  1.0e20  pargp  1.0  -10.000      1
par117       none  relative   10.000     1.0e-20  1.0e20  pargp  1.0  -10.000      1
par118       none  relative   10.000     1.0e-20  1.0e20  pargp  1.0  -10.000      1
par119       none  relative   10.000     1.0e-20  1.0e20  pargp  1.0  -10.000      1
par120       none  relative   10.000     1.0e-20  1.0e20  pargp  1.0  -10.000      1
par121       none  relative   10.000     1.0e-20  1.0e20  pargp  1.0  -10.000      1
par122       none  relative   10.000     1.0e-20  1.0e20  pargp  1.0  -10.000      1
par123       none  relative   10.000     1.0e-20  1.0e20  pargp  1.0  -10.000      1
par124       none  relative   10.000     1.0e-20  1.0e20  pargp  1.0  -10.000      1
par125       none  relative   10.000     1.0e-20  1.0e20  pargp  1.0  -10.000      1
par126       none  relative   10.000     1.0e-20  1.0e20  pargp  1.0  -10.000      1
par127       none  relative   10.000     1.0e-20  1.0e20  pargp  1.0  -10.000      1
par128       none  relative   10.000     1.0e-20  1.0e20  pargp  1.0  -10.000      1
par129       none  relative   10.000     1.0e-20  1.0e20  pargp  1.0  -10.000      1
par130       none  relative   10.000     1.0e-20  1.0e20  pargp  1.0  -10.000      1
par131       none  relative   10.000     1.0e-20  1.0e20  pargp  1.0  -10.000      1
par132       none  relative   10.000     1.0e-20  1.0e20  pargp  1.0  -10.000      1
par133       none  relative   10.000     1.0e-20  1.0e20  pargp  1.0  -10.000      1
par134       none  relative   10.000     1.0e-20  1.0e20  pargp  1.0  -10.000      1
par135       none  relative   10.000     1.0e-20  1.0e20  pargp  1.0  -10.000      1
par136       none  relative   10.000     1.0e-20  1.0e20  pargp  1.0  -10.000      1
par137       none  relative   10.000     1.0e-20  1.0e20  pargp  1.0  -10.000      1
par138       none  relative   10.000     1.0e-20  1.0e20  pargp  1.0  -10.000      1
par139       none  relative   10.000     1.0e-20  1.0e20  pargp  1.0  -10.000      1
par140       none  relative   10.000     1.0e-20  1.0e20  pargp  1.0  -10.000      1
par141       none  relative   10.000     1.0e-20  1.0e20  pargp  1.0  -10.000      1
par142       none  relative   10.000     1.0e-20  1.0e20  pargp  1.0  -10.000      1
par143       none  relative   10.000     1.0e-20  1.0e20  pargp  1.0  -10.000      1
par144       none  relative   10.000     1.0e-20  1.0e20  pargp  1.0  -10.000      1
par145       none  relative   10.000     1.0e-20  1.0e20  pargp  1.0  -10.000      1
par146       none  relative   10.000     1.0e-20  1.0e20  pargp  1.0  -10.000      1
par147       none  relative   10.000     1.0e-20  1.0e20  pargp  1.0  -10.000      1
par148       none  relative   10.000     1.0e-20  1.0e20  pargp  1.0  -10.000      1
par149       none  relative   10.000     1.0e-20  1.0e20  pargp  1.0  -10.000      1
par150       none  relative   10.000     1.0e-20  1.0e20  pargp  1.0  -10.000      1
par151       none  relative   10.000     1.0e-20  1.0e20  pargp  1.0  -10.000      1
par152       none  relative   10.000     1.0e-20  1.0e20  pargp  1.0  -10.000      1
par153       none  relative   10.000     1.0e-20  1.0e20  pargp  1.0  -10.000      1
par154       none  relative   10.000     1.0e-20  1.0e20  pargp  1.0  -10.000      1
par155       none  relative   10.000     1.0e-20  1.0e20  pargp  1.0  -10.000      1
par156       none  relative   10.000     1.0e-20  1.0e20  pargp  1.0  -10.000      1
par157       none  relative   10.000     1.0e-20  1.0e20  pargp  1.0  -10.000      1
par158       none  relative   10.000     1.0e-20  1.0e20  pargp  1.0  -10.000      1
par159       none  relative   10.000     1.0e-20  1.0e20  pargp  1.0  -10.000      1
par160       none  relative   10.000     1.0e-20  1.0e20  pargp  1.0  -10.000      1
par161       none  relative   10.000     1.0e-20  1.0e20  pargp  1.0  -10.000      1
par162       none  relative   10.000     1.0e-20  1.0e20  pargp  1.0  -10.000      1
par163       none  relative   10.000     1.0e-20  1.0e20  pargp  1.0  -10.000      1
par164       none  relative   10.000     1.0e-20  1.0e20  pargp  1.0  -10.000      1
par165       none  relative   10.000     1.0e-20  1.0e20  pargp  1.0  -10.000      1
par166       none  relative   10.000     1.0e-20  1.0e20  pargp  1.0  -10.000      1
par167       none  relative   10.000     1.0e-20  1.0e20  pargp  1.0  -10.000      1
par168       none  relative   10.000     1.0e-20  1.0e20  pargp  1.0  -10.000      1
par169       none  relative   10.000     1.0e-20  1.0e20  pargp  1.0  -10.000      1
par170       none  relative   10.000     1.0e-20  1.0e20  pargp  1.0  -10.000      1
par171       none  relative   10.000     1.0e-20  1.0e20  pargp  1.0  -10.000      1
par172       none  relative   10.000     1.0e-20  1.0e20  pargp  1.0  -10.000      1
par173       none  relative   10.000     1.0e-20  1.0e20  pargp  1.0  -10.000      1
par174       none  relative   10.000     1.0e-20  1.0e20  pargp  1.0  -10.000      1
par175       none  relative   10.000     1.0e-20  1.0e20  pargp  1.0  -10.000      1
par176       none  relative   10.000     1.0e-20  1.0e20  pargp  1.0  -10.000      1
par177       none  relative   10.000     1.0e-20  1.0e20  pargp  1.0  -10.000      1
par178       none  relative   10.000     1.0e-20  1.0e20  pargp  1.0  -10.000      1
par179       none  relative   10.000     1.0e-20  1.0e20  pargp  1.0  -10.000      1
par180       none  relative   10.000     1.0e-20  1.0e20  pargp  1.0  -10.000      1
par181       none  relative   10.000     1.0e-20  1.0e20  pargp  1.0  -10.000      1
par182       none  relative   10.000     1.0e-20  1.0e20  pargp  1.0  -10.000      1
par183       none  relative   10.000     1.0e-20  1.0e20  pargp  1.0  -10.000      1
par184       none  relative   10.000     1.0e-20  1.0e20  pargp  1.0  -10.000      1
par185       none  relative   10.000     1.0e-20  1.0e20  pargp  1.0  -10.000      1
par186       none  relative   10.000     1.0e-20  1.0e20  pargp  1.0  -10.000      1
par187       none  relative   10.000     1.0e-20  1.0e20  pargp  1.0  -10.000      1
par188       none  relative   10.000     1.0e-20  1.0e20  pargp  1.0  -10.000      1
par189       none  relative   10.000     1.0e-20  1.0e20  pargp  1.0  -10.000      1
par190       none  relative   10.000     1.0e-20  1.0e20  pargp  1.0  -10.000      1
par191       none  relative   10.000     1.0e-20  1.0e20  pargp  1.0  -10.000      1
par192       none  relative   10.000     1.0e-20  1.0e20  pargp  1.0  -10.000      1
par193       none  relative   10.000     1.0e-20  1.0e20  pargp  1.0  -10.000      1
par194       none  relative   10.000     1.0e-20  1.0e20  pargp  1.0  -10.000      1
par195       none  relative   10.000     1.0e-20  1.0e20  pargp  1.0  -10.000      1
par196       none  relative   10.000     1.0e-20  1.0e20  pargp  1.0  -10.000      1
par197       none  relative   10.000     1.0e-20  1.0e20  pargp  1.0  -10.000      1
par198       none  relative   10.000     1.0e-20  1.0e20  pargp  1.0  -10.000      1
par199       none  relative   10.000     1.0e-20  1.0e20  pargp  1.0  -10.000      1
par200       none  relative   10.000     1.0e-20  1.0e20  pargp  1.0  -10.000      1
par201       none  relative   10.000     1.0e-20  1.0e20  pargp  1.0  -10.000      1
par202       none  relative   10.000     1.0e-20  1.0e20  pargp  1.0  -10.000      1
par203       none  relative   10.000     1.0e-20  1.0e20  pargp  1.0  -10.000      1
par204       none  relative   10.000     1.0e-20  1.0e20  pargp  1.0  -10.000      1
par205       none  relative   10.000     1.0e-20  1.0e20  pargp  1.0  -10.000      1
par206       none  relative   10.000     1.0e-20  1.0e20  pargp  1.0  -10.000      1
par207       none  relative   10.000     1.0e-20  1.0e20  pargp  1.0  -10.000      1
par208       none  relative   10.000     1.0e-20  1.0e20  pargp  1.0  -10.000      1
par209       none  relative   10.000     1.0e-20  1.0e20  pargp  1.0  -10.000      1
par210       none  relative   10.000     1.0e-20  1.0e20  pargp  1.0  -10.000      1
par211       none  relative   10.000     1.0e-20  1.0e20  pargp  1.0  -10.000      1
par212       none  relative   10.000     1.0e-20  1.0e20  pargp  1.0  -10.000      1
par213       none  relative   10.000     1.0e-20  1.0e20  pargp  1.0  -10.000      1
par214       none  relative   10.000     1.0e-20  1.0e20  pargp  1.0  -10.000      1
par215       none  relative   10.000     1.0e-20  1.0e20  pargp  1.0  -10.000      1
par216       none  relative   10.000     1.0e-20  1.0e20  pargp  1.0  -10.000      1
par217       none  relative   10.000     1.0e-20  1.0e20  pargp  1.0  -10.000      1
par218       none  relative   10.000     1.0e-20  1.0e20  pargp  1.0  -10.000      1
par219       none  relative   10.000     1.0e-20  1.0e20  pargp  1.0  -10.000      1
par220       none  relative   10.000     1.0e-20  1.0e20  pargp  1.0  -10.000      1
par221       none  relative   10.000     1.0e-20  1.0e20  pargp  1.0  -10.000      1
par222       none  relative   10.000     1.0e-20  1.0e20  pargp  1.0  -10.000      1
par223       none  relative   10.000     1.0e-20  1.0e20  pargp  1.0  -10.000      1
par224       none  relative   10.000     1.0e-20  1.0e20  pargp  1.0  -10.000      1
par225       none  relative   10.000     1.0e-20  1.0e20  pargp  1.0  -10.000      1
par226       none  relative   10.000     1.0e-20  1.0e20  pargp  1.0  -10.000      1
par227       none  relative   10.000     1.0e-20  1.0e20  pargp  1.0  -10.000      1
par228       none  relative   10.000     1.0e-20  1.0e20  pargp  1.0  -10.000      1
par229       none  relative   10.000     1.0e-20  1.0e20  pargp  1.0  -10.000      1
par230       none  relative   10.000     1.0e-20  1.0e20  pargp  1.0  -10.000      1
par231       none  relative   10.000     1.0e-20  1.0e20  pargp  1.0  -10.000      1
par232       none  relative   10.000     1.0e-20  1.0e20  pargp  1.0  -10.000      1
par233       none  relative   10.000     1.0e-20  1.0e20  pargp  1.0  -10.000      1
par234       none  relative   10.000     1.0e-20  1.0e20  pargp  1.0  -10.000      1
par235       none  relative   10.000     1.0e-20  1.0e20  pargp  1.0  -10.000      1
par236       none  relative   10.000     1.0e-20  1.0e20  pargp  1.0  -10.000      1
par237       none  relative   10.000     1.0e-20  1.0e20  pargp  1.0  -10.000      1
par238       none  relative   10.000     1.0e-20  1.0e20  pargp  1.0  -10.000      1
par239       none  relative   10.000     1.0e-20  1.0e20  pargp  1.0  -10.000      1
par240       none  relative   10.000     1.0e-20  1.0e20  pargp  1.0  -10.000      1
par241       none  relative   10.000     1.0e-20  1.0e20  pargp  1.0  -10.000      1
par242       none  relative   10.000     1.0e-20  1.0e20  pargp  1.0  -10.000      1
par243       none  relative   10.000     1.0e-20  1.0e20  pargp  1.0  -10.000      1
par244       none  relative   10.000     1.0e-20  1.0e20  pargp  1.0  -10.000      1
par245       none  relative   10.000     1.0e-20  1.0e20  pargp  1.0  -10.000      1
par246       none  relative   10.000     1.0e-20  1.0e20  pargp  1.0  -10.000      1
par247       none  relative   10.000     1.0e-20  1.0e20  pargp  1.0  -10.000      1
par248       none  relative   10.000     1.0e-20  1.0e20  pargp  1.0  -10.000      1
par249       none  relative   10.000     1.0e-20  1.0e20  pargp  1.0  -10.000      1
par250       none  relative   10.000     1.0e-20  1.0e20  pargp  1.0  -10.000      1
* observation groups
index
head_usgs
head_mmr
major
stream
off
mound
lsedrain
regul_kp
regul_kz
regul_rch
regul_strms
regul_wetlnd
regul_coast
regul_hfb
* observation data
a230    18.93   4.942945E+00    index
a247    20.21   4.942945E+00    index
a254    35.58   4.942945E+00    index
a292    33.84   4.942945E+00    index
a294    18.14   4.942945E+00    index
a306    28.99   4.942945E+00    index
a307    5.57    4.942945E+00    index
a314    33.33   4.942945E+00    index
a315    33.02   4.942945E+00    index
AshumetPd       45.09   4.942945E+00    index
b198    22.41   4.942945E+00    index
b212    46.22   4.942945E+00    index
b215_0083       46.44   4.942945E+00    index
bmw21   26.86   4.942945E+00    Index
bmw22   19.58   4.942945E+00    Index
bmw44   26.92   4.942945E+00    Index
cgw138  11.35   4.942945E+00    Index
CrockerPd       15.28   4.942945E+00    index
dgw123  32.83   4.942945E+00    Index
dgw158  18.82   4.942945E+00    Index
egw36   13.54   4.942945E+00    Index
f167_0055       41.46   4.942945E+00    index
f172    9.38    4.942945E+00    index
f173_0069       30.26   4.942945E+00    index
f179_0052       26.45   4.942945E+00    index
JemimaPd        8.74    4.942945E+00    index
m026    7.37    4.942945E+00    index
m029    7.41    4.942945E+00    index
osw22   4.56    4.942945E+00    Index
RunnPd  24.97   4.942945E+00    index
s252    6.23    4.942945E+00    index
s253    61.29   4.942945E+00    index
s258_0084       54.33   4.942945E+00    index
s261_0160       60.12   4.942945E+00    index
s263_0111       36.59   4.942945E+00    index
SnakePd 68.49   4.942945E+00    index
SpectaclePd     63.95   4.942945E+00    index
UpperMillPd     27.75   4.942945E+00    index
WashPd  20.52   4.942945E+00    index
WhitePd 14.68   4.942945E+00    index
y085    20.95   4.942945E+00    index
y089    18.08   4.942945E+00    index
y093    9.4     4.942945E+00    index
y094    8.01    4.942945E+00    index
y096    5.89    4.942945E+00    index
y098    14.84   4.942945E+00    index
a313    26.57   1.176607E+00    head_usgs
AuntEdiesPd     31.25   1.176607E+00    head_usgs
b214    46.14   1.176607E+00    head_usgs
BakePd  21.25   1.176607E+00    head_usgs
BakersPd        23.59   1.176607E+00    head_usgs
BlueberryPd     26.12   1.176607E+00    head_usgs
bmw105  29.38   1.176607E+00    head_usgs
bmw45   31.48   1.176607E+00    head_usgs
bmw46   27.37   1.176607E+00    head_usgs
bmw79   28.97   1.176607E+00    head_usgs
bmw83   29.55   1.176607E+00    head_usgs
bmw85   31.03   1.176607E+00    head_usgs
bmw86   30.57   1.176607E+00    head_usgs
cgw177  12.07   1.176607E+00    head_usgs
CobbsPd 12.1    1.176607E+00    head_usgs
Coonpond        35.04   1.176607E+00    head_usgs
CrystalLake     13.59   1.176607E+00    head_usgs
d135    16.05   1.176607E+00    head_usgs
dgw100  45.14   0.000000E+00    head_usgs
dgw135  1.61E+01        1.176607E+00    head_usgs
dgw157  25.72   1.176607E+00    head_usgs
dgw160  8.49    1.176607E+00    head_usgs
dgw169  5.59    1.176607E+00    head_usgs
dgw172  6.43    1.176607E+00    head_usgs
dgw173  8.85    1.176607E+00    head_usgs
dgw247  26.16   1.176607E+00    head_usgs
dgw88   25.19   1.176607E+00    head_usgs
egw37   8.35    1.176607E+00    head_usgs
f166_0067       35.45   1.176607E+00    head_usgs
f168_0018       36.2    1.176607E+00    head_usgs
f169_0050       32.43   1.176607E+00    head_usgs
f175_0050       26.19   1.176607E+00    head_usgs
f176_0044       22.79   1.176607E+00    head_usgs
f181    5.77    1.176607E+00    head_usgs
f182_0069       2.92E+01        1.176607E+00    head_usgs
f185_0057       19.76   1.176607E+00    head_usgs
f225_0020       41.71   1.176607E+00    head_usgs
f226_0021       44.18   1.176607E+00    head_usgs
f230_0058       47.22   1.176607E+00    head_usgs
f231_0057       4.80E+01        1.176607E+00    head_usgs
f232_0058       47.94   1.176607E+00    head_usgs
f234_0099       48.19   1.176607E+00    head_usgs
f235_0094       48.02   1.176607E+00    head_usgs
f236_0121       48.15   1.176607E+00    head_usgs
f238_0106       4.44E+01        1.176607E+00    head_usgs
f239_0010       45      1.176607E+00    head_usgs
f239_0064       44.78   1.176607E+00    head_usgs
f239_0121       45.3    1.176607E+00    head_usgs
f240_0095       42.14   1.176607E+00    head_usgs
f241_0098       44.48   1.176607E+00    head_usgs
f242_0077       38.08   1.176607E+00    head_usgs
f243_0045       41.28   1.176607E+00    head_usgs
f244_0119       44.16   1.176607E+00    head_usgs
f245_0025       38.31   1.176607E+00    head_usgs
f248_0010       39.69   1.176607E+00    head_usgs
f253_0019       34.34   1.176607E+00    head_usgs
f254_0216       43.95   1.176607E+00    head_usgs
f262_0126       38.28   1.176607E+00    head_usgs
f267_0136       41.65   1.176607E+00    head_usgs
f271_0084       31.49   1.176607E+00    head_usgs
f275_0072       31.75   1.176607E+00    head_usgs
f282_0083       34.15   1.176607E+00    head_usgs
f300_0118       44.8    1.176607E+00    head_usgs
f302_0020       30.16   1.176607E+00    head_usgs
f303_0020       24.76   1.176607E+00    head_usgs
f343_0036       46.69   1.176607E+00    head_usgs
f343_0057       46.6    1.176607E+00    head_usgs
f343_0079       46.59   1.176607E+00    head_usgs
f343_0099       46.58   1.176607E+00    head_usgs
f343_0114       47.02   1.176607E+00    head_usgs
f343_0129       46.8    1.176607E+00    head_usgs
f343_0145       47.45   1.176607E+00    head_usgs
f345_0031       45.35   1.176607E+00    head_usgs
f346_0032       45.13   1.176607E+00    head_usgs
f347_0020       45.81   1.176607E+00    head_usgs
f347_0031       45.99   1.176607E+00    head_usgs
f347_0046       45.69   1.176607E+00    head_usgs
f347_0067       45.96   1.176607E+00    head_usgs
f347_0101       45.91   1.176607E+00    head_usgs
f347_0116       46.04   1.176607E+00    head_usgs
f347_0131       46.36   1.176607E+00    head_usgs
f347_0145       45.11   1.176607E+00    head_usgs
f348_0073       42.88   1.176607E+00    head_usgs
f351_0016       32.59   1.176607E+00    head_usgs
f352_0016       34.34   1.176607E+00    head_usgs
f353_0016       34.57   1.176607E+00    head_usgs
f355_0104       34.17   1.176607E+00    head_usgs
f356_0134       33.18   1.176607E+00    head_usgs
f357_0099       32.66   1.176607E+00    head_usgs
f358_0119       34.98   1.176607E+00    head_usgs
f359_0088       33.8    1.176607E+00    head_usgs
f369_0055       37.32   1.176607E+00    head_usgs
f370_0054       37.58   1.176607E+00    head_usgs
f371_0056       38.84   1.176607E+00    head_usgs
f373_0024       38.32   1.176607E+00    head_usgs
f373_0060       35.81   1.176607E+00    head_usgs
f373_0061       35.76   1.176607E+00    head_usgs
f373_0073       36.05   1.176607E+00    head_usgs
f373_0082       35.69   1.176607E+00    head_usgs
f373_0113       37.35   1.176607E+00    head_usgs
f376_0037       46.01   1.176607E+00    head_usgs
f377_0037       45.85   1.176607E+00    head_usgs
f378_0040       45.98   1.176607E+00    head_usgs
f379_0034       45.65   1.176607E+00    head_usgs
f380_0032       45.26   1.176607E+00    head_usgs
f381_0056       45.71   1.176607E+00    head_usgs
f382_0032       45.82   1.176607E+00    head_usgs
f383_0023       45.99   1.176607E+00    head_usgs
f383_0030       45.59   1.176607E+00    head_usgs
f383_0032       45.61   1.176607E+00    head_usgs
f383_0040       46.09   1.176607E+00    head_usgs
f383_0061       45.92   1.176607E+00    head_usgs
f383_0082       45.92   1.176607E+00    head_usgs
f383_0106       46.17   1.176607E+00    head_usgs
f383_0129       46.67   1.176607E+00    head_usgs
f384_0033       45.59   1.176607E+00    head_usgs
f385_0032       45.83   1.176607E+00    head_usgs
f387_0039       45.35   1.176607E+00    head_usgs