pcf
* control data
restart regularisation
     440   23921      14      6      75
16  37  single  point  1  0  0
0.01  -4.00  3.000000e-001  1.000000e-002  7  999
1.000000e+001  1.000000e+001  1.000000e-003
1.000000e-001 noaui
0  1.000000e-002  3  3  1.000000e-002  3
1  1  1	 1
* singular value decomposition
1
17 1e-6
0
* parameter groups
Kp      relative   1.000000e-002  0.000000e+000  switch  2.000000e+000  parabolic
Kz      relative   1.000000e-002  0.000000e+000  switch  2.000000e+000  parabolic
Rchg    relative   1.000000e-002  0.050000e+000  switch  2.000000e+000  parabolic
Aniso   relative   1.000000e-002  0.050000e+000  switch  2.000000e+000  parabolic
UZF     relative   1.000000e-002  0.050000e+000  switch  2.000000e+000  parabolic
strmbed	relative   1.000000e-002  0.050000e+000  switch  2.000000e+000  parabolic
storage	relative   1.000000e-002  0.050000e+000  switch  2.000000e+000  parabolic
intcp        relative     1.0000E-02  1.0000E-05  switch      2.000      outside_pts
evap         relative     1.0000E-02  1.0000E-05  switch      2.000      outside_pts
prcp         relative     1.0000E-02  1.0000E-05  switch      2.000      outside_pts
interflow    relative     1.0000E-02  1.0000E-05  switch      2.000      outside_pts
soilzone     relative     1.0000E-02  1.0000E-05  switch      2.000      outside_pts
srunoff      relative     1.0000E-02  1.0000E-05  switch      2.000      outside_pts
snow         relative     1.0000E-02  1.0000E-05  switch      2.000      outside_pts
* parameter data
snint_fac    log    factor        1.0000       0.75000        1.5000      intcp          1.000       0.000        1
srnint_fac   log    factor        1.0000       0.75000        1.5000      intcp          1.000       0.000        1
wrnint_fac   log    factor        1.0000       0.75000        1.5000      intcp          1.000       0.000        1
jhcoef_fac   log    factor        1.0000       0.75000        1.5000      evap           1.000       0.000        1
rnadj_fac    log    factor        1.0000       0.75000        1.5000      prcp           1.000       0.000        1
snwadj_fac   log    factor        1.0000       0.75000        1.5000      prcp           1.000       0.000        1
f_lin_fac    log    factor        1.0000       0.75000        1.5000      interflow      1.000       0.000        1
f_sq_fac     log    factor        1.0000       0.75000        1.5000      interflow      1.000       0.000        1
pfd_fac      log    factor        1.0000       0.75000        1.5000      soilzone       1.000       0.000        1
satth_fac    log    factor        1.0000       0.75000        1.5000      soilzone       1.000       0.000        1
s_lin_fac    log    factor        1.0000       0.75000        1.5000      interflow      1.000       0.000        1
s_sq_fac     log    factor        1.0000       0.75000        1.5000      interflow      1.000       0.000        1
srm_fac      log    factor        1.0000       0.75000        1.5000      soilzone       1.000       0.000        1
s2gwmx_fac   log    factor        1.0000       0.75000        1.5000      soilzone       1.000       0.000        1
s2gwe_fac    log    factor        1.0000       0.75000        1.5000      soilzone       1.000       0.000        1
s2gw_fac     log    factor        1.0000       0.75000        1.5000      soilzone       1.000       0.000        1
ssrmax_fac   log    factor        1.0000       0.75000        1.5000      soilzone       1.000       0.000        1
smdx_fac     log    factor        1.0000       0.75000        1.5000      srunoff        1.000       0.000        1
smdxe_fac    log    factor        1.0000       0.75000        1.5000      srunoff        1.000       0.000        1
sn_infil_fac log    factor        1.0000       0.75000        1.5000      snow           1.000       0.000        1
smm_fac      log    factor        1.0000       0.75000        1.5000      soilzone       1.000       0.000        1
rchgma85 fixed   factor    1.204084      1.000000e-003  1.000000e+005    rchg   1.0 0.0 1
streamkz  log	factor   0.2228174      1.000000e-002  1.000000e+002  strmbed 1.0  0.0  1
streamthk fixed	factor    1.000000      1.000000e-002  1.000000e+002  strmbed 1.0  0.0  1
wokhkvratio fixed factor    17.12747      10.000000   10000.000000  aniso  1.0  0.0  1
surfdep   log  factor   0.5258634      0.0000100   10000.000000  uzf  1.0  0.0  1
vks_mult  log  factor    1.069724      0.0000100   10000.000000  uzf  1.0  0.0  1
bc-eps 	  log  factor    3.588428      3.0000000   4.0000000000  uzf  1.0  0.0  1
thetas       tied   factor   0.8717602      1.00000e-02   1.00000e+01  uzf      1.000       0.000        1
sy           log    factor   0.8631289      1.00000e-01   5.00000e+01  storage             1.000       0.000        1
storage      log    factor    1.076644      1.00000e-05   1.00000e+01  storage             1.000       0.000        1
kzpz1-1   fixed  factor    28.31008      2.890000e+000  2.890000e+002  kz  1.0  0.0  1
kzpz1-2   fixed  factor    28.37354      2.890000e+000  2.890000e+002  kz  1.0  0.0  1
kzpz1-3   fixed  factor    29.23807      2.890000e+000  2.890000e+002  kz  1.0  0.0  1
kzpz1-4   fixed  factor    29.38276      2.890000e+000  2.890000e+002  kz  1.0  0.0  1
kzpz1-5   fixed  factor    28.94343      2.890000e+000  2.890000e+002  kz  1.0  0.0  1
kzpz1-6   fixed  factor    28.66437      2.890000e+000  2.890000e+002  kz  1.0  0.0  1
kzpz1-7   fixed  factor    29.30130      2.890000e+000  2.890000e+002  kz  1.0  0.0  1
kzpz1-8   fixed  factor    28.72219      2.890000e+000  2.890000e+002  kz  1.0  0.0  1
kzpz1-9   fixed  factor    29.27011      2.890000e+000  2.890000e+002  kz  1.0  0.0  1
kzpz1-10  fixed  factor    29.26144      2.890000e+000  2.890000e+002  kz  1.0  0.0  1
kzpz1-11  fixed  factor    29.35086      2.890000e+000  2.890000e+002  kz  1.0  0.0  1
kzpz1-12  fixed  factor    28.85425      2.890000e+000  2.890000e+002  kz  1.0  0.0  1
kzpz1-13  fixed  factor    28.42194      2.890000e+000  2.890000e+002  kz  1.0  0.0  1
kzpz1-14  fixed  factor    28.42836      2.890000e+000  2.890000e+002  kz  1.0  0.0  1
kzpz1-15  fixed  factor    28.80798      2.890000e+000  2.890000e+002  kz  1.0  0.0  1
kzpz1-16  fixed  factor    28.54689      2.890000e+000  2.890000e+002  kz  1.0  0.0  1
kzpz1-17  fixed  factor    29.24149      2.890000e+000  2.890000e+002  kz  1.0  0.0  1
kzpz1-18  fixed  factor    28.30116      2.890000e+000  2.890000e+002  kz  1.0  0.0  1
kzpz1-19  fixed  factor    29.05238      2.890000e+000  2.890000e+002  kz  1.0  0.0  1
kzpz1-20  fixed  factor    29.05034      2.890000e+000  2.890000e+002  kz  1.0  0.0  1
kzpz1-21  fixed  factor    29.63453      2.890000e+000  2.890000e+002  kz  1.0  0.0  1
kzpz1-22  fixed  factor    29.51725      2.890000e+000  2.890000e+002  kz  1.0  0.0  1
kzpz1-23  fixed  factor    28.42989      2.890000e+000  2.890000e+002  kz  1.0  0.0  1
kzpz1-24  fixed  factor    29.20321      2.890000e+000  2.890000e+002  kz  1.0  0.0  1
kzpz1-25  fixed  factor    28.24068      2.890000e+000  2.890000e+002  kz  1.0  0.0  1
kzpz1-26  fixed  factor    29.01016      2.890000e+000  2.890000e+002  kz  1.0  0.0  1
kzpz1-27  fixed  factor    28.93243      2.890000e+000  2.890000e+002  kz  1.0  0.0  1
kzpz1-28  fixed  factor    28.63528      2.890000e+000  2.890000e+002  kz  1.0  0.0  1
kzpz1-29  fixed  factor    28.25254      2.890000e+000  2.890000e+002  kz  1.0  0.0  1
kzpz1-30  fixed  factor    29.49842      2.890000e+000  2.890000e+002  kz  1.0  0.0  1
kzpz1-31  fixed  factor    28.67992      2.890000e+000  2.890000e+002  kz  1.0  0.0  1
kzpz1-32  fixed  factor    28.71284      2.890000e+000  2.890000e+002  kz  1.0  0.0  1
kzpz1-33  fixed  factor    29.16571      2.890000e+000  2.890000e+002  kz  1.0  0.0  1
kzpz1-34  fixed  factor    29.54047      2.890000e+000  2.890000e+002  kz  1.0  0.0  1
kzpz1-35  fixed  factor    29.49837      2.890000e+000  2.890000e+002  kz  1.0  0.0  1
kzpz1-36  fixed  factor    28.64187      2.890000e+000  2.890000e+002  kz  1.0  0.0  1
kzpz1-37  fixed  factor    28.98427      2.890000e+000  2.890000e+002  kz  1.0  0.0  1
kzpz1-38  fixed  factor    28.56390      2.890000e+000  2.890000e+002  kz  1.0  0.0  1
kzpz1-39  fixed  factor    29.48535      2.890000e+000  2.890000e+002  kz  1.0  0.0  1
kzpz1-40  fixed  factor    28.64572      2.890000e+000  2.890000e+002  kz  1.0  0.0  1
kzkz26_1  fixed  factor    1.442691      1.600000e-001  1.600000e+001  kz  1.0  0.0  1
kzkz34_1  fixed  factor    1.931166      2.000000e-001  2.000000e+001  kz  1.0  0.0  1
kzkz38_1  fixed  factor    6.020126      6.000000e-001  6.000000e+001  kz  1.0  0.0  1
kzkz39_1  fixed  factor    3.057652      3.000000e-001  3.000000e+001  kz  1.0  0.0  1
kzkz41_1  fixed  factor   0.4698170      5.232000e-002  5.232000e+000  kz  1.0  0.0  1
kzkz45_1  fixed  factor    19.87626      2.000000e+000  2.000000e+002  kz  1.0  0.0  1
kzpz2-1   fixed  factor    28.96705      2.890000e+000  2.890000e+002  kz  1.0  0.0  1
kzpz2-2   fixed  factor    28.93850      2.890000e+000  2.890000e+002  kz  1.0  0.0  1
kzpz2-3   fixed  factor    29.06118      2.890000e+000  2.890000e+002  kz  1.0  0.0  1
kzpz2-4   fixed  factor    29.17773      2.890000e+000  2.890000e+002  kz  1.0  0.0  1
kzpz2-5   fixed  factor    28.63482      2.890000e+000  2.890000e+002  kz  1.0  0.0  1
kzpz2-6   fixed  factor    28.73920      2.890000e+000  2.890000e+002  kz  1.0  0.0  1
kzpz2-7   fixed  factor    28.88757      2.890000e+000  2.890000e+002  kz  1.0  0.0  1
kzpz2-8   fixed  factor    28.83331      2.890000e+000  2.890000e+002  kz  1.0  0.0  1
kzpz2-9   fixed  factor    29.50475      2.890000e+000  2.890000e+002  kz  1.0  0.0  1
kzpz2-10  fixed  factor    29.02468      2.890000e+000  2.890000e+002  kz  1.0  0.0  1
kzpz2-11  fixed  factor    29.40178      2.890000e+000  2.890000e+002  kz  1.0  0.0  1
kzpz2-12  fixed  factor    30.05177      2.890000e+000  2.890000e+002  kz  1.0  0.0  1
kzpz2-13  fixed  factor    28.82749      2.890000e+000  2.890000e+002  kz  1.0  0.0  1
kzpz2-14  fixed  factor    29.38886      2.890000e+000  2.890000e+002  kz  1.0  0.0  1
kzpz2-15  fixed  factor    28.90399      2.890000e+000  2.890000e+002  kz  1.0  0.0  1
kzpz2-16  fixed  factor    29.38434      2.890000e+000  2.890000e+002  kz  1.0  0.0  1
kzpz2-17  fixed  factor    28.88566      2.890000e+000  2.890000e+002  kz  1.0  0.0  1
kzpz2-18  fixed  factor    28.83222      2.890000e+000  2.890000e+002  kz  1.0  0.0  1
kzpz2-19  fixed  factor    28.79926      2.890000e+000  2.890000e+002  kz  1.0  0.0  1
kzpz2-20  fixed  factor    28.70107      2.890000e+000  2.890000e+002  kz  1.0  0.0  1
kzpz2-21  fixed  factor    28.67669      2.890000e+000  2.890000e+002  kz  1.0  0.0  1
kzpz2-22  fixed  factor    29.21266      2.890000e+000  2.890000e+002  kz  1.0  0.0  1
kzpz2-23  fixed  factor    28.58060      2.890000e+000  2.890000e+002  kz  1.0  0.0  1
kzpz2-24  fixed  factor    29.65119      2.890000e+000  2.890000e+002  kz  1.0  0.0  1
kzpz2-25  fixed  factor    29.01747      2.890000e+000  2.890000e+002  kz  1.0  0.0  1
kzpz2-26  fixed  factor    28.81802      2.890000e+000  2.890000e+002  kz  1.0  0.0  1
kzpz2-27  fixed  factor    29.08000      2.890000e+000  2.890000e+002  kz  1.0  0.0  1
kzpz2-28  fixed  factor    29.37489      2.890000e+000  2.890000e+002  kz  1.0  0.0  1
kzpz2-29  fixed  factor    28.77258      2.890000e+000  2.890000e+002  kz  1.0  0.0  1
kzpz2-30  fixed  factor    29.18988      2.890000e+000  2.890000e+002  kz  1.0  0.0  1
kzpz2-31  fixed  factor    29.05098      2.890000e+000  2.890000e+002  kz  1.0  0.0  1
kzpz2-32  fixed  factor    29.56058      2.890000e+000  2.890000e+002  kz  1.0  0.0  1
kzpz2-33  fixed  factor    29.07584      2.890000e+000  2.890000e+002  kz  1.0  0.0  1
kzpz2-34  fixed  factor    28.85948      2.890000e+000  2.890000e+002  kz  1.0  0.0  1
kzpz2-35  fixed  factor    28.87521      2.890000e+000  2.890000e+002  kz  1.0  0.0  1
kzpz2-36  fixed  factor    28.64784      2.890000e+000  2.890000e+002  kz  1.0  0.0  1
kzpz2-37  fixed  factor    28.56462      2.890000e+000  2.890000e+002  kz  1.0  0.0  1
kzpz2-38  fixed  factor    29.16708      2.890000e+000  2.890000e+002  kz  1.0  0.0  1
kzpz2-39  fixed  factor    29.12472      2.890000e+000  2.890000e+002  kz  1.0  0.0  1
kzpz2-40  fixed  factor    29.47257      2.890000e+000  2.890000e+002  kz  1.0  0.0  1
kzkz26_2  fixed  factor    1.442691      1.600000e-001  1.600000e+001  kz  1.0  0.0  1
kzkz34_2  fixed  factor    1.931166      2.000000e-001  2.000000e+001  kz  1.0  0.0  1
kzkz39_2  fixed  factor    3.057652      3.000000e-001  3.000000e+001  kz  1.0  0.0  1
kzkz41_2  fixed  factor   0.4698170      5.232000e-002  5.232000e+000  kz  1.0  0.0  1
kzkz45_2  fixed  factor    19.87626      2.000000e+000  2.000000e+002  kz  1.0  0.0  1
kzkz48_2  fixed  factor    4.841956      5.000000e-001  5.000000e+001  kz  1.0  0.0  1
kzpz3-1   fixed  factor    29.30499      2.890000e+000  2.890000e+002  kz  1.0  0.0  1
kzpz3-2   fixed  factor    27.33722      2.890000e+000  2.890000e+002  kz  1.0  0.0  1
kzpz3-3   fixed  factor    29.22689      2.890000e+000  2.890000e+002  kz  1.0  0.0  1
kzpz3-4   fixed  factor    29.22033      2.890000e+000  2.890000e+002  kz  1.0  0.0  1
kzpz3-5   fixed  factor    29.19624      2.890000e+000  2.890000e+002  kz  1.0  0.0  1
kzpz3-6   fixed  factor    29.35462      2.890000e+000  2.890000e+002  kz  1.0  0.0  1
kzpz3-7   fixed  factor    28.94294      2.890000e+000  2.890000e+002  kz  1.0  0.0  1
kzpz3-8   fixed  factor    29.03374      2.890000e+000  2.890000e+002  kz  1.0  0.0  1
kzpz3-9   fixed  factor    29.32636      2.890000e+000  2.890000e+002  kz  1.0  0.0  1
kzpz3-10  fixed  factor    29.08747      2.890000e+000  2.890000e+002  kz  1.0  0.0  1
kzpz3-11  fixed  factor    28.92498      2.890000e+000  2.890000e+002  kz  1.0  0.0  1
kzpz3-12  fixed  factor    29.16123      2.890000e+000  2.890000e+002  kz  1.0  0.0  1
kzpz3-13  fixed  factor    28.74993      2.890000e+000  2.890000e+002  kz  1.0  0.0  1
kzpz3-14  fixed  factor    29.24778      2.890000e+000  2.890000e+002  kz  1.0  0.0  1
kzpz3-15  fixed  factor    28.78192      2.890000e+000  2.890000e+002  kz  1.0  0.0  1
kzpz3-16  fixed  factor    28.99341      2.890000e+000  2.890000e+002  kz  1.0  0.0  1
kzpz3-17  fixed  factor    28.66380      2.890000e+000  2.890000e+002  kz  1.0  0.0  1
kzpz3-18  fixed  factor    30.02571      2.890000e+000  2.890000e+002  kz  1.0  0.0  1
kzpz3-19  fixed  factor    28.71508      2.890000e+000  2.890000e+002  kz  1.0  0.0  1
kzpz3-20  fixed  factor    29.21360      2.890000e+000  2.890000e+002  kz  1.0  0.0  1
kzpz3-21  fixed  factor    29.37360      2.890000e+000  2.890000e+002  kz  1.0  0.0  1
kzpz3-22  fixed  factor    28.92108      2.890000e+000  2.890000e+002  kz  1.0  0.0  1
kzpz3-23  fixed  factor    28.74391      2.890000e+000  2.890000e+002  kz  1.0  0.0  1
kzpz3-24  fixed  factor    28.67392      2.890000e+000  2.890000e+002  kz  1.0  0.0  1
kzpz3-25  fixed  factor    29.60480      2.890000e+000  2.890000e+002  kz  1.0  0.0  1
kzpz3-26  fixed  factor    29.54168      2.890000e+000  2.890000e+002  kz  1.0  0.0  1
kzpz3-27  fixed  factor    29.01750      2.890000e+000  2.890000e+002  kz  1.0  0.0  1
kzpz3-28  fixed  factor    28.85898      2.890000e+000  2.890000e+002  kz  1.0  0.0  1
kzpz3-29  fixed  factor    28.67127      2.890000e+000  2.890000e+002  kz  1.0  0.0  1
kzpz3-30  fixed  factor    28.99647      2.890000e+000  2.890000e+002  kz  1.0  0.0  1
kzpz3-31  fixed  factor    28.77339      2.890000e+000  2.890000e+002  kz  1.0  0.0  1
kzpz3-32  fixed  factor    29.37767      2.890000e+000  2.890000e+002  kz  1.0  0.0  1
kzpz3-33  fixed  factor    29.23748      2.890000e+000  2.890000e+002  kz  1.0  0.0  1
kzpz3-34  fixed  factor    28.63495      2.890000e+000  2.890000e+002  kz  1.0  0.0  1
kzpz3-35  fixed  factor    28.54049      2.890000e+000  2.890000e+002  kz  1.0  0.0  1
kzpz3-36  fixed  factor    28.83506      2.890000e+000  2.890000e+002  kz  1.0  0.0  1
kzpz3-37  fixed  factor    28.66374      2.890000e+000  2.890000e+002  kz  1.0  0.0  1
kzpz3-38  fixed  factor    29.04546      2.890000e+000  2.890000e+002  kz  1.0  0.0  1
kzpz3-39  fixed  factor    28.84686      2.890000e+000  2.890000e+002  kz  1.0  0.0  1
kzpz3-40  fixed  factor    28.77983      2.890000e+000  2.890000e+002  kz  1.0  0.0  1
kzkz26_3  fixed  factor    1.442691      1.600000e-001  1.600000e+001  kz  1.0  0.0  1
kzkz34_3  fixed  factor    1.931166      2.000000e-001  2.000000e+001  kz  1.0  0.0  1
kzkz39_3  fixed  factor    3.057652      3.000000e-001  3.000000e+001  kz  1.0  0.0  1
kzkz41_3  fixed  factor   0.4698170      5.232000e-002  5.232000e+000  kz  1.0  0.0  1
kzkz45_3  fixed  factor    19.87626      2.000000e+000  2.000000e+002  kz  1.0  0.0  1
kzpz4-1   fixed  factor    28.78466      2.890000e+000  2.890000e+002  kz  1.0  0.0  1
kzpz4-2   fixed  factor    28.85429      2.890000e+000  2.890000e+002  kz  1.0  0.0  1
kzpz4-3   fixed  factor    28.66524      2.890000e+000  2.890000e+002  kz  1.0  0.0  1
kzpz4-4   fixed  factor    28.72262      2.890000e+000  2.890000e+002  kz  1.0  0.0  1
kzpz4-5   fixed  factor    28.96042      2.890000e+000  2.890000e+002  kz  1.0  0.0  1
kzpz4-6   fixed  factor    28.69762      2.890000e+000  2.890000e+002  kz  1.0  0.0  1
kzkz26_4  fixed  factor    1.442691      1.600000e-001  1.600000e+001  kz  1.0  0.0  1
kzkz34_4  fixed  factor    1.931166      2.000000e-001  2.000000e+001  kz  1.0  0.0  1
kzkz39_4  fixed  factor    3.057652      3.000000e-001  3.000000e+001  kz  1.0  0.0  1
kzkz45_4  fixed  factor    19.87626      2.000000e+000  2.000000e+002  kz  1.0  0.0  1
kzpz5-1   fixed  factor   1.0342087E-03  1.000000e-004  1.000000e-002  kz  1.0  0.0  1
kzpz5-2   fixed  factor   1.0359534E-03  1.000000e-004  1.000000e-002  kz  1.0  0.0  1
kzpz5-3   fixed  factor   1.0471171E-03  1.000000e-004  1.000000e-002  kz  1.0  0.0  1
kzpz5-4   fixed  factor   1.0227703E-03  1.000000e-004  1.000000e-002  kz  1.0  0.0  1
kzpz5-5   fixed  factor   9.7692862E-04  1.000000e-004  1.000000e-002  kz  1.0  0.0  1
kzpz5-6   fixed  factor   9.0216208E-04  1.000000e-004  1.000000e-002  kz  1.0  0.0  1
kzpz5-7   fixed  factor   8.3420446E-04  1.000000e-004  1.000000e-002  kz  1.0  0.0  1
kzpz5-8   fixed  factor   7.1154758E-04  1.000000e-004  1.000000e-002  kz  1.0  0.0  1
kzpz5-9   fixed  factor   7.7757642E-04  1.000000e-004  1.000000e-002  kz  1.0  0.0  1
kzpz5-10  fixed  factor   8.7071244E-04  1.000000e-004  1.000000e-002  kz  1.0  0.0  1
kzpz5-11  fixed  factor   1.0356678E-03  1.000000e-004  1.000000e-002  kz  1.0  0.0  1
kzpz5-12  fixed  factor   1.0417548E-03  1.000000e-004  1.000000e-002  kz  1.0  0.0  1
kzpz5-13  fixed  factor   1.0384152E-03  1.000000e-004  1.000000e-002  kz  1.0  0.0  1
kzpz5-14  fixed  factor   1.0083387E-03  1.000000e-004  1.000000e-002  kz  1.0  0.0  1
kzpz5-15  fixed  factor   9.9242122E-04  1.000000e-004  1.000000e-002  kz  1.0  0.0  1
kzpz5-16  fixed  factor   9.7826850E-04  1.000000e-004  1.000000e-002  kz  1.0  0.0  1
kzpz5-17  fixed  factor   9.7380284E-04  1.000000e-004  1.000000e-002  kz  1.0  0.0  1
kzpz5-18  fixed  factor   8.8058238E-04  1.000000e-004  1.000000e-002  kz  1.0  0.0  1
kzpz5-19  fixed  factor   7.1447549E-04  1.000000e-004  1.000000e-002  kz  1.0  0.0  1
kzpz5-20  fixed  factor   7.4073888E-04  1.000000e-004  1.000000e-002  kz  1.0  0.0  1
kzpz5-21  fixed  factor   8.7780745E-04  1.000000e-004  1.000000e-002  kz  1.0  0.0  1
kzpz5-22  fixed  factor   1.0316488E-03  1.000000e-004  1.000000e-002  kz  1.0  0.0  1
kzpz5-23  fixed  factor   1.0211304E-03  1.000000e-004  1.000000e-002  kz  1.0  0.0  1
kzpz5-24  fixed  factor   1.0273856E-03  1.000000e-004  1.000000e-002  kz  1.0  0.0  1
kzpz5-25  fixed  factor   1.0078627E-03  1.000000e-004  1.000000e-002  kz  1.0  0.0  1
kzpz5-26  fixed  factor   9.6388095E-04  1.000000e-004  1.000000e-002  kz  1.0  0.0  1
kzpz5-27  fixed  factor   9.9759614E-04  1.000000e-004  1.000000e-002  kz  1.0  0.0  1
kzpz5-28  fixed  factor   9.8689458E-04  1.000000e-004  1.000000e-002  kz  1.0  0.0  1
kzpz5-29  fixed  factor   8.9290325E-04  1.000000e-004  1.000000e-002  kz  1.0  0.0  1
kzpz5-30  fixed  factor   8.2019763E-04  1.000000e-004  1.000000e-002  kz  1.0  0.0  1
kzpz5-31  fixed  factor   7.5060566E-04  1.000000e-004  1.000000e-002  kz  1.0  0.0  1
kzpz5-32  fixed  factor   7.9593753E-04  1.000000e-004  1.000000e-002  kz  1.0  0.0  1
kzpz5-33  fixed  factor   1.0273039E-03  1.000000e-004  1.000000e-002  kz  1.0  0.0  1
kzpz5-34  fixed  factor   1.0411518E-03  1.000000e-004  1.000000e-002  kz  1.0  0.0  1
kzpz5-35  fixed  factor   1.0178358E-03  1.000000e-004  1.000000e-002  kz  1.0  0.0  1
kzpz5-36  fixed  factor   1.0382122E-03  1.000000e-004  1.000000e-002  kz  1.0  0.0  1
kzpz5-37  fixed  factor   1.0478920E-03  1.000000e-004  1.000000e-002  kz  1.0  0.0  1
kzpz5-38  fixed  factor   1.0558135E-03  1.000000e-004  1.000000e-002  kz  1.0  0.0  1
kzpz5-39  fixed  factor   1.0194370E-03  1.000000e-004  1.000000e-002  kz  1.0  0.0  1
kzpz5-40  fixed  factor   9.5666305E-04  1.000000e-004  1.000000e-002  kz  1.0  0.0  1
kzpz5-41  fixed  factor   9.0346149E-04  1.000000e-004  1.000000e-002  kz  1.0  0.0  1
kzpz5-42  fixed  factor   8.0953590E-04  1.000000e-004  1.000000e-002  kz  1.0  0.0  1
kzpz5-43  fixed  factor   7.9510412E-04  1.000000e-004  1.000000e-002  kz  1.0  0.0  1
kzpz5-44  fixed  factor   1.0318081E-03  1.000000e-004  1.000000e-002  kz  1.0  0.0  1
kzpz5-45  fixed  factor   1.0479816E-03  1.000000e-004  1.000000e-002  kz  1.0  0.0  1
kzpz5-46  fixed  factor   1.0219950E-03  1.000000e-004  1.000000e-002  kz  1.0  0.0  1
kzpz5-47  fixed  factor   1.0193170E-03  1.000000e-004  1.000000e-002  kz  1.0  0.0  1
kzpz5-48  fixed  factor   1.0274353E-03  1.000000e-004  1.000000e-002  kz  1.0  0.0  1
kzpz5-49  fixed  factor   1.0450183E-03  1.000000e-004  1.000000e-002  kz  1.0  0.0  1
kzpz5-50  fixed  factor   1.0189253E-03  1.000000e-004  1.000000e-002  kz  1.0  0.0  1
kzpz5-51  fixed  factor   9.7453691E-04  1.000000e-004  1.000000e-002  kz  1.0  0.0  1
kzpz5-52  fixed  factor   9.9977695E-04  1.000000e-004  1.000000e-002  kz  1.0  0.0  1
kzpz5-53  fixed  factor   8.2122672E-04  1.000000e-004  1.000000e-002  kz  1.0  0.0  1
kzpz5-54  fixed  factor   1.0076575E-03  1.000000e-004  1.000000e-002  kz  1.0  0.0  1
kzpz5-55  fixed  factor   1.0432559E-03  1.000000e-004  1.000000e-002  kz  1.0  0.0  1
kzpz5-56  fixed  factor   1.0178150E-03  1.000000e-004  1.000000e-002  kz  1.0  0.0  1
kzpz5-57  fixed  factor   1.0137802E-03  1.000000e-004  1.000000e-002  kz  1.0  0.0  1
kzpz5-58  fixed  factor   1.0236156E-03  1.000000e-004  1.000000e-002  kz  1.0  0.0  1
kzpz5-59  fixed  factor   1.0029757E-03  1.000000e-004  1.000000e-002  kz  1.0  0.0  1
kzpz5-60  fixed  factor   9.4831890E-04  1.000000e-004  1.000000e-002  kz  1.0  0.0  1
kzpz5-61  fixed  factor   9.7322255E-04  1.000000e-004  1.000000e-002  kz  1.0  0.0  1
kzpz5-62  fixed  factor   1.0038226E-03  1.000000e-004  1.000000e-002  kz  1.0  0.0  1
kzpz5-63  fixed  factor   9.8786725E-04  1.000000e-004  1.000000e-002  kz  1.0  0.0  1
kzpz5-64  fixed  factor   9.4563465E-04  1.000000e-004  1.000000e-002  kz  1.0  0.0  1
kzpz5-65  fixed  factor   1.0167414E-03  1.000000e-004  1.000000e-002  kz  1.0  0.0  1
kzpz5-66  fixed  factor   1.0089456E-03  1.000000e-004  1.000000e-002  kz  1.0  0.0  1
kzpz5-67  fixed  factor   9.9612923E-04  1.000000e-004  1.000000e-002  kz  1.0  0.0  1
kzpz5-68  fixed  factor   9.8602118E-04  1.000000e-004  1.000000e-002  kz  1.0  0.0  1
kzpz5-69  fixed  factor   9.9122589E-04  1.000000e-004  1.000000e-002  kz  1.0  0.0  1
kzpz5-70  fixed  factor   9.6929874E-04  1.000000e-004  1.000000e-002  kz  1.0  0.0  1
kzpz5-71  fixed  factor   9.9183868E-04  1.000000e-004  1.000000e-002  kz  1.0  0.0  1
kzpz5-72  fixed  factor   1.0175986E-03  1.000000e-004  1.000000e-002  kz  1.0  0.0  1
kzpz5-73  fixed  factor   1.0593913E-03  1.000000e-004  1.000000e-002  kz  1.0  0.0  1
kzpz5-74  fixed  factor   1.1197565E-03  1.000000e-004  1.000000e-002  kz  1.0  0.0  1
kzpz5-75  fixed  factor   1.2340163E-03  1.000000e-004  1.000000e-002  kz  1.0  0.0  1
kzpz5-76  fixed  factor   9.8312461E-04  1.000000e-004  1.000000e-002  kz  1.0  0.0  1
kzpz5-77  fixed  factor   9.9041273E-04  1.000000e-004  1.000000e-002  kz  1.0  0.0  1
kzpz5-78  fixed  factor   9.7456763E-04  1.000000e-004  1.000000e-002  kz  1.0  0.0  1
kzpz5-79  fixed  factor   1.0090992E-03  1.000000e-004  1.000000e-002  kz  1.0  0.0  1
kzpz5-80  fixed  factor   9.7939474E-04  1.000000e-004  1.000000e-002  kz  1.0  0.0  1
kzpz5-81  fixed  factor   9.9127914E-04  1.000000e-004  1.000000e-002  kz  1.0  0.0  1
kzpz5-82  fixed  factor   1.0347171E-03  1.000000e-004  1.000000e-002  kz  1.0  0.0  1
kzpz5-83  fixed  factor   1.0479825E-03  1.000000e-004  1.000000e-002  kz  1.0  0.0  1
kzpz5-84  fixed  factor   1.1177285E-03  1.000000e-004  1.000000e-002  kz  1.0  0.0  1
kzpz5-85  fixed  factor   1.2018680E-03  1.000000e-004  1.000000e-002  kz  1.0  0.0  1
kzpz5-86  fixed  factor   1.4460278E-03  1.000000e-004  1.000000e-002  kz  1.0  0.0  1
kzpz5-87  fixed  factor   1.0069316E-03  1.000000e-004  1.000000e-002  kz  1.0  0.0  1
kzpz5-88  fixed  factor   9.9473732E-04  1.000000e-004  1.000000e-002  kz  1.0  0.0  1
kzpz5-89  fixed  factor   9.8697387E-04  1.000000e-004  1.000000e-002  kz  1.0  0.0  1
kzpz5-90  fixed  factor   9.9777090E-04  1.000000e-004  1.000000e-002  kz  1.0  0.0  1
kzpz5-91  fixed  factor   1.0002416E-03  1.000000e-004  1.000000e-002  kz  1.0  0.0  1
kzpz5-92  fixed  factor   1.1006533E-03  1.000000e-004  1.000000e-002  kz  1.0  0.0  1
kzpz5-93  fixed  factor   9.9339283E-04  1.000000e-004  1.000000e-002  kz  1.0  0.0  1
kzpz5-94  fixed  factor   1.4612422E-03  1.000000e-004  1.000000e-002  kz  1.0  0.0  1
kzpz5-95  fixed  factor   9.9512495E-04  1.000000e-004  1.000000e-002  kz  1.0  0.0  1
kzpz5-96  fixed  factor   1.0009120E-03  1.000000e-004  1.000000e-002  kz  1.0  0.0  1
kzpz5-97  fixed  factor   1.0007084E-03  1.000000e-004  1.000000e-002  kz  1.0  0.0  1
kzpz5-98  fixed  factor   1.0121745E-03  1.000000e-004  1.000000e-002  kz  1.0  0.0  1
kzpz5-99  fixed  factor   1.0039812E-03  1.000000e-004  1.000000e-002  kz  1.0  0.0  1
kzpz5100  fixed  factor   1.1262315E-03  1.000000e-004  1.000000e-002  kz  1.0  0.0  1
kzpz5101  fixed  factor   9.9568633E-04  1.000000e-004  1.000000e-002  kz  1.0  0.0  1
kzpz5102  fixed  factor   1.4295021E-03  1.000000e-004  1.000000e-002  kz  1.0  0.0  1
kzpz5103  fixed  factor   9.9783603E-04  1.000000e-004  1.000000e-002  kz  1.0  0.0  1
kzkz26_5  fixed  factor    1.442691      1.600000e-001  1.600000e+001  kz  1.0  0.0  1
kzkz34_5  fixed  factor    1.931166      2.000000e-001  2.000000e+001  kz  1.0  0.0  1
kzkz39_5  fixed  factor    3.057652      3.000000e-001  3.000000e+001  kz  1.0  0.0  1
kzkz47_5  fixed  factor    28.69762      2.890000e+000  2.890000e+002  kz  1.0  0.0  1
kzkz44_6  fixed  factor   5.7265597E-03  1.411000e-003  1.411000e-001  kz  1.0  0.0  1
kpph1-1   fixed  factor    628.1202      79.700000     7970.000000    kp  1.0  0.0  1
kpph1-2   fixed  factor    757.0453      79.700000     7970.000000    kp  1.0  0.0  1
kpph1-3   fixed  factor    782.9392      79.700000     7970.000000    kp  1.0  0.0  1
kpph1-4   fixed  factor    478.5576      79.700000     7970.000000    kp  1.0  0.0  1
kpph1-5   fixed  factor    788.9153      79.700000     7970.000000    kp  1.0  0.0  1
kpph1-6   fixed  factor    296.0265      79.700000     7970.000000    kp  1.0  0.0  1
kpph1-7   fixed  factor    804.4470      79.700000     7970.000000    kp  1.0  0.0  1
kpph1-8   fixed  factor    804.6385      79.700000     7970.000000    kp  1.0  0.0  1
kpph1-9   fixed  factor    774.2474      79.700000     7970.000000    kp  1.0  0.0  1
kpph1-10  fixed  factor    506.4562      79.700000     7970.000000    kp  1.0  0.0  1
kpph1-11  fixed  factor    840.2222      79.700000     7970.000000    kp  1.0  0.0  1
kpph1-12  fixed  factor    836.9448      79.700000     7970.000000    kp  1.0  0.0  1
kpph1-13  fixed  factor    858.2968      79.700000     7970.000000    kp  1.0  0.0  1
kpph1-14  fixed  factor    1002.602      79.700000     7970.000000    kp  1.0  0.0  1
kpph1-15  fixed  factor    764.3755      79.700000     7970.000000    kp  1.0  0.0  1
kpph1-16  fixed  factor    955.3396      79.700000     7970.000000    kp  1.0  0.0  1
kpph1-17  fixed  factor    1009.575      79.700000     7970.000000    kp  1.0  0.0  1
kpph1-18  fixed  factor    784.2708      79.700000     7970.000000    kp  1.0  0.0  1
kpph1-19  fixed  factor    513.6407      79.700000     7970.000000    kp  1.0  0.0  1
kpph1-20  fixed  factor    713.6852      79.700000     7970.000000    kp  1.0  0.0  1
kpph1-21  fixed  factor    1083.029      79.700000     7970.000000    kp  1.0  0.0  1
kpph1-22  fixed  factor    510.9875      79.700000     7970.000000    kp  1.0  0.0  1
kpph1-23  fixed  factor    344.5972      79.700000     7970.000000    kp  1.0  0.0  1
kpph1-24  fixed  factor    855.8536      79.700000     7970.000000    kp  1.0  0.0  1
kpph1-25  fixed  factor    598.1135      79.700000     7970.000000    kp  1.0  0.0  1
kpph1-26  fixed  factor    564.9456      79.700000     7970.000000    kp  1.0  0.0  1
kpph1-27  fixed  factor    798.3238      79.700000     7970.000000    kp  1.0  0.0  1
kpph1-28  fixed  factor    743.8312      79.700000     7970.000000    kp  1.0  0.0  1
kpph1-29  fixed  factor    925.2899      79.700000     7970.000000    kp  1.0  0.0  1