pcf
* control data
restart estimation
    289  10613      8      0     78
     1     1   single   point   1   0   0
5.0   2.0    0.3    0.03    10  999
5.0   5.0   1.0e-3
0.1  noaui
0   .005  4   4  .005   4
1    1    1
* parameter groups
runoff       relative     1.0000E-02   0.000      switch      2.000      parabolic
precip       relative     1.0000E-02   0.000      switch      2.000      parabolic
solrad       relative     1.0000E-02   0.000      switch      2.000      parabolic
snow         relative     1.0000E-02   0.000      switch      2.000      parabolic
prms         relative     1.0000E-02   0.000      switch      2.000      parabolic
evap         relative     1.0000E-02   0.000      switch      2.000      parabolic
szone        relative     1.0000E-02   0.000      switch      2.000      parabolic
sfres        relative     1.0000E-02   0.000      switch      2.000      parabolic
* parameter data
alleqoutmult log    factor    16.74940      0.10000        100.00      sfres         0.1000       0.000        1
troutoutmult log    factor    7.082980      0.10000        100.00      sfres         0.1000       0.000        1
ljohnoutmult log    factor    27.89800      0.10000        100.00      sfres         0.1000       0.000        1
mannoutmult  log    factor    11.64500      0.10000        100.00      sfres         0.1000       0.000        1
alleqlowflw  log    factor    50558.30      42000.       1.68000e+05  sfres         0.1000       0.000        1
troutlowflw  log    factor    17855.60      5000.0        80000.      sfres         0.1000       0.000        1
carea_max0   log    factor   0.1000000      0.10000        1.1000      runoff         1.000      -.1000        1
carea_max1   log    factor   0.2027980      0.10000        1.1000      runoff         1.000      -.1000        1
carea_max2   log    factor   0.5172670      0.10000        1.1000      runoff         1.000      -.1000        1
carea_max3   log    factor   0.1022570      0.10000        1.1000      runoff         1.000      -.1000        1
carea_max4   log    factor   0.2394290      0.10000        1.1000      runoff         1.000      -.1000        1
carea_max5   log    factor   0.2168750      0.10000        1.1000      runoff         1.000      -.1000        1
carea_max6   log    factor   0.3189270      0.10000        1.1000      runoff         1.000      -.1000        1
carea_max7   log    factor   0.2348700      0.10000        1.1000      runoff         1.000      -.1000        1
carea_max8   log    factor   0.1842350      0.10000        1.1000      runoff         1.000      -.1000        1
adjmix_rain  log    factor    1.100000      0.10000        3.1000      precip         1.000      -.1000        1
radj_wppt    fixed  factor   0.1112100      0.10000        1.1000      solrad         1.000      -.1000        1
rain_adj     log    factor    1.096300      0.80000        5.0000      precip         1.000       0.000        1
snow_adj     log    factor    1.157910      0.80000        5.0000      precip         1.000       0.000        1
smidx_exp    log    factor   0.2000000      0.20000       0.80000      runoff         1.000       0.000        1
snowinfil_ma fixed  factor    1.100000      0.10000        20.100      runoff         1.000      -.1000        1
gwflow_coef0 fixed  factor   0.1018310      0.10000        1.1000      prms           1.000      -.1000        1
gwflow_coef1 fixed  factor   0.1023690      0.10000        1.1000      prms           1.000      -.1000        1
gwflow_coef2 fixed  factor    1.100000      0.10000        1.1000      prms           1.000      -.1000        1
gwflow_coef3 fixed  factor   0.1000000      0.10000        1.1000      prms           1.000      -.1000        1
gwflow_coef4 fixed  factor   0.4546340      0.10000        1.1000      prms           1.000      -.1000        1
gwflow_coef5 fixed  factor   0.1189600      0.10000        1.1000      prms           1.000      -.1000        1
gwflow_coef6 fixed  factor   0.3251760      0.10000        1.1000      prms           1.000      -.1000        1
gwflow_coef7 fixed  factor   0.1141610      0.10000        1.1000      prms           1.000      -.1000        1
gwflow_coef8 fixed  factor   0.1026000      0.10000        1.1000      prms           1.000      -.1000        1
den_max      fixed  factor   0.5444300      0.10000       0.80000      snow           1.000       0.000        1
jh_coef_hru  fixed  factor    5.000000      5.0000        20.000      evap           1.000       0.000        1
jh_coef01    fixed  factor   6.7962300E-03  5.00000e-03   0.60000      evap           1.000       0.000        1
jh_coef02    fixed  factor   1.4682100E-02  5.00000e-03   0.60000      evap           1.000       0.000        1
jh_coef03    fixed  factor   1.4918700E-02  5.00000e-03   0.60000      evap           1.000       0.000        1
jh_coef04    fixed  factor   1.1249800E-02  5.00000e-03   0.60000      evap           1.000       0.000        1
jh_coef05    fixed  factor   9.3103500E-03  5.00000e-03   0.60000      evap           1.000       0.000        1
jh_coef06    fixed  factor   9.1528800E-03  5.00000e-03   0.60000      evap           1.000       0.000        1
jh_coef07    fixed  factor   9.4200300E-03  5.00000e-03   0.60000      evap           1.000       0.000        1
jh_coef08    fixed  factor   9.8050300E-03  5.00000e-03   0.60000      evap           1.000       0.000        1
jh_coef09    fixed  factor   1.0609500E-02  5.00000e-03   0.60000      evap           1.000       0.000        1
jh_coef10    fixed  factor   1.1844800E-02  5.00000e-03   0.60000      evap           1.000       0.000        1
jh_coef11    fixed  factor   1.6430000E-02  5.00000e-03   0.60000      evap           1.000       0.000        1
jh_coef12    fixed  factor   6.7314300E-03  5.00000e-03   0.60000      evap           1.000       0.000        1
lk_evap_ad01 fixed  factor    1.225900      0.50000        2.0000      evap           1.000       0.000        1
lk_evap_ad02 fixed  factor   0.8854900      0.50000        2.0000      evap           1.000       0.000        1
lk_evap_ad03 fixed  factor   0.5000000      0.50000        2.0000      evap           1.000       0.000        1
lk_evap_ad04 fixed  factor   0.5000000      0.50000        2.0000      evap           1.000       0.000        1
lk_evap_ad05 fixed  factor   0.5000000      0.50000        2.0000      evap           1.000       0.000        1
lk_evap_ad06 fixed  factor   0.5000000      0.50000        2.0000      evap           1.000       0.000        1
lk_evap_ad07 fixed  factor   0.5000000      0.50000        2.0000      evap           1.000       0.000        1
lk_evap_ad08 fixed  factor   0.7606300      0.50000        2.0000      evap           1.000       0.000        1
lk_evap_ad09 fixed  factor    1.018900      0.50000        2.0000      evap           1.000       0.000        1
lk_evap_ad10 fixed  factor    1.403000      0.50000        2.0000      evap           1.000       0.000        1
lk_evap_ad11 fixed  factor    1.168800      0.50000        2.0000      evap           1.000       0.000        1
lk_evap_ad12 fixed  factor   0.8610900      0.50000        2.0000      evap           1.000       0.000        1
al_evap_ad01 log    factor    1.135460      0.70000        1.5000      evap           1.000       0.000        1
al_evap_ad02 log    factor   0.9838300      0.70000        1.5000      evap           1.000       0.000        1
al_evap_ad03 log    factor   0.7000000      0.70000        1.5000      evap           1.000       0.000        1
al_evap_ad04 log    factor   0.7000000      0.70000        1.5000      evap           1.000       0.000        1
al_evap_ad05 log    factor   0.7000000      0.70000        1.5000      evap           1.000       0.000        1
al_evap_ad06 log    factor   0.7388150      0.70000        1.5000      evap           1.000       0.000        1
al_evap_ad07 log    factor   0.7091520      0.70000        1.5000      evap           1.000       0.000        1
al_evap_ad08 log    factor   0.8278890      0.70000        1.5000      evap           1.000       0.000        1
al_evap_ad09 log    factor    1.136290      0.70000        1.5000      evap           1.000       0.000        1
al_evap_ad10 log    factor    1.500000      0.70000        1.5000      evap           1.000       0.000        1
al_evap_ad11 log    factor    1.112220      0.70000        1.5000      evap           1.000       0.000        1
al_evap_ad12 log    factor   0.8381410      0.70000        1.5000      evap           1.000       0.000        1
bm_evap_ad01 log    factor    1.225900      0.70000        1.5000      evap           1.000       0.000        1
bm_evap_ad02 log    factor   0.8854900      0.70000        1.5000      evap           1.000       0.000        1
bm_evap_ad03 log    factor   0.7000000      0.70000        1.5000      evap           1.000       0.000        1
bm_evap_ad04 log    factor   0.7000000      0.70000        1.5000      evap           1.000       0.000        1
bm_evap_ad05 log    factor   0.7000000      0.70000        1.5000      evap           1.000       0.000        1
bm_evap_ad06 log    factor   0.7000000      0.70000        1.5000      evap           1.000       0.000        1
bm_evap_ad07 log    factor   0.7000000      0.70000        1.5000      evap           1.000       0.000        1
bm_evap_ad08 log    factor   0.7606300      0.70000        1.5000      evap           1.000       0.000        1
bm_evap_ad09 log    factor    1.018900      0.70000        1.5000      evap           1.000       0.000        1
bm_evap_ad10 log    factor    1.403000      0.70000        1.5000      evap           1.000       0.000        1
bm_evap_ad11 log    factor    1.168800      0.70000        1.5000      evap           1.000       0.000        1
bm_evap_ad12 log    factor   0.8610900      0.70000        1.5000      evap           1.000       0.000        1
cr_evap_ad01 log    factor    1.225900      0.70000        1.5000      evap           1.000       0.000        1
cr_evap_ad02 log    factor   0.8854900      0.70000        1.5000      evap           1.000       0.000        1
cr_evap_ad03 log    factor   0.7000000      0.70000        1.5000      evap           1.000       0.000        1
cr_evap_ad04 log    factor   0.7000000      0.70000        1.5000      evap           1.000       0.000        1
cr_evap_ad05 log    factor   0.7000000      0.70000        1.5000      evap           1.000       0.000        1
cr_evap_ad06 log    factor   0.7000000      0.70000        1.5000      evap           1.000       0.000        1
cr_evap_ad07 log    factor   0.7000000      0.70000        1.5000      evap           1.000       0.000        1
cr_evap_ad08 log    factor   0.7606300      0.70000        1.5000      evap           1.000       0.000        1
cr_evap_ad09 log    factor    1.018900      0.70000        1.5000      evap           1.000       0.000        1
cr_evap_ad10 log    factor    1.403000      0.70000        1.5000      evap           1.000       0.000        1
cr_evap_ad11 log    factor    1.168800      0.70000        1.5000      evap           1.000       0.000        1
cr_evap_ad12 log    factor   0.8610900      0.70000        1.5000      evap           1.000       0.000        1
tr_evap_ad01 log    factor    1.089520      0.70000        1.5000      evap           1.000       0.000        1
tr_evap_ad02 log    factor   0.7000000      0.70000        1.5000      evap           1.000       0.000        1
tr_evap_ad03 log    factor   0.7000000      0.70000        1.5000      evap           1.000       0.000        1
tr_evap_ad04 log    factor   0.7000000      0.70000        1.5000      evap           1.000       0.000        1
tr_evap_ad05 log    factor   0.7000000      0.70000        1.5000      evap           1.000       0.000        1
tr_evap_ad06 log    factor   0.7000000      0.70000        1.5000      evap           1.000       0.000        1
tr_evap_ad07 log    factor   0.8805200      0.70000        1.5000      evap           1.000       0.000        1
tr_evap_ad08 log    factor    1.009420      0.70000        1.5000      evap           1.000       0.000        1
tr_evap_ad09 log    factor    1.500000      0.70000        1.5000      evap           1.000       0.000        1
tr_evap_ad10 log    factor    1.500000      0.70000        1.5000      evap           1.000       0.000        1
tr_evap_ad11 log    factor   0.7502130      0.70000        1.5000      evap           1.000       0.000        1
tr_evap_ad12 log    factor   0.7537130      0.70000        1.5000      evap           1.000       0.000        1
potet_sublim fixed  factor   0.1000000      0.10000       0.75000      snow           1.000       0.000        1
ssr2gw_exp   log    factor   0.3963180      0.10000        3.1000      szone          1.000      -.1000        1
soil2gw_max0 log    factor   0.1042690      0.10000        5.1000      szone          1.000      -.1000        1
soil2gw_max1 log    factor   0.1000000      0.10000        5.1000      szone          1.000      -.1000        1
soil2gw_max2 log    factor   0.1000000      0.10000        5.1000      szone          1.000      -.1000        1
soil2gw_max3 log    factor   0.1000000      0.10000        5.1000      szone          1.000      -.1000        1
soil2gw_max4 log    factor   0.1001440      0.10000        5.1000      szone          1.000      -.1000        1
soil2gw_max5 log    factor   0.1005570      0.10000        5.1000      szone          1.000      -.1000        1
soil2gw_max6 log    factor   0.1032100      0.10000        5.1000      szone          1.000      -.1000        1
soil2gw_max7 log    factor   0.1000000      0.10000        5.1000      szone          1.000      -.1000        1
soil2gw_max8 log    factor   0.1000000      0.10000        5.1000      szone          1.000      -.1000        1
crad_coef    fixed  factor   0.3677400      0.10000       0.70000      solrad         1.000       0.000        1
sat_threshol fixed  factor    6.000000      1.0000        999.00      precip         1.000       0.000        1
tmax_allsnow fixed  factor    22.30000      0.10000        27.800      precip         1.000      -23.40        1
crad_exp     fixed  factor   0.5766300      0.20000       0.80000      solrad         1.000       0.000        1
pref_flow_de fixed  factor   0.1000000      0.10000        1.1000      szone          1.000      -.1000        1
gwsink_coef0 fixed  factor   0.1001780      0.10000        1.1000      prms           1.000      -.1000        1
gwsink_coef1 fixed  factor   0.1021570      0.10000        1.1000      prms           1.000      -.1000        1
gwsink_coef2 fixed  factor   0.8264950      0.10000        1.1000      prms           1.000      -.1000        1
gwsink_coef3 fixed  factor   0.1418680      0.10000        1.1000      prms           1.000      -.1000        1
gwsink_coef4 fixed  factor   0.1000000      0.10000        1.1000      prms           1.000      -.1000        1
gwsink_coef5 fixed  factor   0.1079950      0.10000        1.1000      prms           1.000      -.1000        1
gwsink_coef6 fixed  factor   0.1000000      0.10000        1.1000      prms           1.000      -.1000        1
gwsink_coef7 fixed  factor   0.1005810      0.10000        1.1000      prms           1.000      -.1000        1
gwsink_coef8 fixed  factor   0.1010000      0.10000        1.1000      prms           1.000      -.1000        1
smidx_coef   log    factor   0.2708460      1.00000e-04    1.0000      runoff         1.000       0.000        1
albset_snm   fixed  factor   6.6071500E-02  1.00000e-03    1.0000      snow           1.000       0.000        1
albset_rna   fixed  factor    1.052800      0.10000        1.1000      snow           1.000      -.1000        1
sfres_seep01 fixed  factor    1640.800      0.10000        2000.0      sfres          1.000      -.1000        1
sfres_seep02 fixed  factor    1643.000      0.10000        2000.0      sfres          1.000      -.1000        1
sfres_seep03 fixed  factor    1620.100      0.10000        2000.0      sfres          1.000      -.1000        1
sfres_seep04 fixed  factor    1636.400      0.10000        2000.0      sfres          1.000      -.1000        1
sfres_seep05 fixed  factor    1637.800      0.10000        2000.0      sfres          1.000      -.1000        1
sfres_seep06 fixed  factor    1643.200      0.10000        2000.0      sfres          1.000      -.1000        1
sfres_seep07 fixed  factor    1624.000      0.10000        2000.0      sfres          1.000      -.1000        1
sfres_seep08 fixed  factor    1624.000      0.10000        2000.0      sfres          1.000      -.1000        1
sfres_seep09 fixed  factor    1626.300      0.10000        2000.0      sfres          1.000      -.1000        1
sfres_seep10 fixed  factor    1623.000      0.10000        2000.0      sfres          1.000      -.1000        1
sfres_seep11 fixed  factor    1642.100      0.10000        2000.0      sfres          1.000      -.1000        1
sfres_seep12 fixed  factor    1623.000      0.10000        2000.0      sfres          1.000      -.1000        1
sfres_seep13 fixed  factor    1648.000      0.10000        2000.0      sfres          1.000      -.1000        1
sfres_seep14 fixed  factor    1650.900      0.10000        2000.0      sfres          1.000      -.1000        1
sfres_seep15 fixed  factor    1644.700      0.10000        2000.0      sfres          1.000      -.1000        1
sfres_seep16 fixed  factor    1628.900      0.10000        2000.0      sfres          1.000      -.1000        1
sfres_seep17 fixed  factor    1688.000      0.10000        2000.0      sfres          1.000      -.1000        1
sfres_seep18 fixed  factor    1624.000      0.10000        2000.0      sfres          1.000      -.1000        1
sfres_seep19 fixed  factor    1618.100      0.10000        2000.0      sfres          1.000      -.1000        1
sfres_seep20 fixed  factor    1654.900      0.10000        2000.0      sfres          1.000      -.1000        1
sfres_seep21 fixed  factor    1633.200      0.10000        2000.0      sfres          1.000      -.1000        1
sfres_seep22 fixed  factor    1623.700      0.10000        2000.0      sfres          1.000      -.1000        1
sfres_seep23 fixed  factor    1623.700      0.10000        2000.0      sfres          1.000      -.1000        1
sfres_seep24 fixed  factor    1641.700      0.10000        2000.0      sfres          1.000      -.1000        1
sfres_seep25 fixed  factor    1633.900      0.10000        2000.0      sfres          1.000      -.1000        1
sfres_seep26 fixed  factor    1646.000      0.10000        2000.0      sfres          1.000      -.1000        1
sfres_seep27 fixed  factor    1647.300      0.10000        2000.0      sfres          1.000      -.1000        1
sfres_seep28 fixed  factor    1622.100      0.10000        2000.0      sfres          1.000      -.1000        1
sfres_seep29 fixed  factor    1640.800      0.10000        2000.0      sfres          1.000      -.1000        1
sfres_seep30 fixed  factor    1614.500      0.10000        2000.0      sfres          1.000      -.1000        1
albset_sna   fixed  factor   3.5148200E-03  1.00000e-03    1.0000      snow           1.000       0.000        1
fastcoef_li0 fixed  factor   0.5217500      0.10000        1.1000      szone          1.000      -.1000        1
fastcoef_li1 fixed  factor   0.5217500      0.10000        1.1000      szone          1.000      -.1000        1
fastcoef_li2 fixed  factor   0.5099400      0.10000        1.1000      szone          1.000      -.1000        1
fastcoef_li3 fixed  factor   0.6941100      0.10000        1.1000      szone          1.000      -.1000        1
fastcoef_li4 fixed  factor   0.7931600      0.10000        1.1000      szone          1.000      -.1000        1
fastcoef_li5 fixed  factor    1.100000      0.10000        1.1000      szone          1.000      -.1000        1
fastcoef_li6 fixed  factor   0.6294700      0.10000        1.1000      szone          1.000      -.1000        1
fastcoef_li7 fixed  factor   0.5039000      0.10000        1.1000      szone          1.000      -.1000        1
fastcoef_li8 fixed  factor   0.6786300      0.10000        1.1000      szone          1.000      -.1000        1
gw_seep_co01 fixed  factor   0.1107650      0.10000        1.1000      sfres          1.000      -.1000        1
gw_seep_co02 fixed  factor   0.1149860      0.10000        1.1000      sfres          1.000      -.1000        1
gw_seep_co03 fixed  factor   0.1150000      0.10000        1.1000      sfres          1.000      -.1000        1
gw_seep_co04 fixed  factor   0.1312830      0.10000        1.1000      sfres          1.000      -.1000        1
gw_seep_co05 fixed  factor   0.1168510      0.10000        1.1000      sfres          1.000      -.1000        1
gw_seep_co06 fixed  factor   0.1099870      0.10000        1.1000      sfres          1.000      -.1000        1
gw_seep_co07 fixed  factor   0.1162030      0.10000        1.1000      sfres          1.000      -.1000        1
gw_seep_co08 fixed  factor   0.1150070      0.10000        1.1000      sfres          1.000      -.1000        1
gw_seep_co09 fixed  factor   0.1150000      0.10000        1.1000      sfres          1.000      -.1000        1
gw_seep_co10 fixed  factor   0.1150180      0.10000        1.1000      sfres          1.000      -.1000        1
gw_seep_co11 fixed  factor   0.1093590      0.10000        1.1000      sfres          1.000      -.1000        1
gw_seep_co12 fixed  factor   0.1163460      0.10000        1.1000      sfres          1.000      -.1000        1
gw_seep_co13 fixed  factor   0.1144040      0.10000        1.1000      sfres          1.000      -.1000        1
gw_seep_co14 fixed  factor   0.1157220      0.10000        1.1000      sfres          1.000      -.1000        1
gw_seep_co15 fixed  factor   0.1170360      0.10000        1.1000      sfres          1.000      -.1000        1
gw_seep_co16 fixed  factor   0.1163460      0.10000        1.1000      sfres          1.000      -.1000        1
gw_seep_co17 fixed  factor   0.1150430      0.10000        1.1000      sfres          1.000      -.1000        1
gw_seep_co18 fixed  factor   0.1163460      0.10000        1.1000      sfres          1.000      -.1000        1
gw_seep_co19 fixed  factor   0.1150000      0.10000        1.1000      sfres          1.000      -.1000        1
gw_seep_co20 fixed  factor   0.1044490      0.10000        1.1000      sfres          1.000      -.1000        1
gw_seep_co21 fixed  factor   0.1994000      0.10000        1.1000      sfres          1.000      -.1000        1
gw_seep_co22 fixed  factor   0.1312720      0.10000        1.1000      sfres          1.000      -.1000        1
gw_seep_co23 fixed  factor   0.1163070      0.10000        1.1000      sfres          1.000      -.1000        1
gw_seep_co24 fixed  factor   0.1342200      0.10000        1.1000      sfres          1.000      -.1000        1
gw_seep_co25 fixed  factor   0.1124090      0.10000        1.1000      sfres          1.000      -.1000        1
gw_seep_co26 fixed  factor   0.1281630      0.10000        1.1000      sfres          1.000      -.1000        1
gw_seep_co27 fixed  factor   0.1180990      0.10000        1.1000      sfres          1.000      -.1000        1
gw_seep_co28 fixed  factor   0.1171000      0.10000        1.1000      sfres          1.000      -.1000        1
gw_seep_co29 fixed  factor   0.1818730      0.10000        1.1000      sfres          1.000      -.1000        1
gw_seep_co30 fixed  factor   0.1234520      0.10000        1.1000      sfres          1.000      -.1000        1
albset_rnm   fixed  factor   0.6806000      0.10000        1.1000      snow           1.000      -.1000        1
emis_noppt   fixed  factor   0.7500000      0.75000        1.0000      snow           1.000       0.000        1
fastcoef_sq0 fixed  factor   0.1000000      0.10000        1.1000      szone          1.000      -.1000        1
fastcoef_sq1 fixed  factor   0.1000000      0.10000        1.1000      szone          1.000      -.1000        1
fastcoef_sq2 fixed  factor   0.1000000      0.10000        1.1000      szone          1.000      -.1000        1
fastcoef_sq3 fixed  factor   0.1000000      0.10000        1.1000      szone          1.000      -.1000        1
fastcoef_sq4 fixed  factor   0.1000000      0.10000        1.1000      szone          1.000      -.1000        1
fastcoef_sq5 fixed  factor   0.1000000      0.10000        1.1000      szone          1.000      -.1000        1
fastcoef_sq6 fixed  factor   0.1000000      0.10000        1.1000      szone          1.000      -.1000        1
fastcoef_sq7 fixed  factor   0.1000000      0.10000        1.1000      szone          1.000      -.1000        1
fastcoef_sq8 fixed  factor   0.1000000      0.10000        1.1000      szone          1.000      -.1000        1
soil_rechr_0 tied   factor   0.1380080      0.10000        10.100      szone          1.000      -.1000        1
soil_rechr_1 tied   factor   0.1361080      0.10000        10.100      szone          1.000      -.1000        1
soil_rechr_2 tied   factor    1.050270      0.10000        10.100      szone          1.000      -.1000        1
soil_rechr_3 tied   factor   0.6621430      0.10000        10.100      szone          1.000      -.1000        1
soil_rechr_4 tied   factor    1.340620      0.10000        10.100      szone          1.000      -.1000        1
soil_rechr_5 tied   factor   0.6981770      0.10000        10.100      szone          1.000      -.1000        1
soil_rechr_6 tied   factor    3.553430      0.10000        10.100      szone          1.000      -.1000        1
soil_rechr_7 tied   factor    1.528050      0.10000        10.100      szone          1.000      -.1000        1
soil_rechr_8 tied   factor   0.7973300      0.10000        10.100      szone          1.000      -.1000        1
slowcoef_sq0 log    factor   0.1000000      0.10000        1.1000      szone          1.000      -.1000        1
slowcoef_sq1 log    factor   0.1040050      0.10000        1.1000      szone          1.000      -.1000        1
slowcoef_sq2 log    factor   0.1033080      0.10000        1.1000      szone          1.000      -.1000        1
slowcoef_sq3 log    factor   0.1032150      0.10000        1.1000      szone          1.000      -.1000        1
slowcoef_sq4 log    factor   0.1008420      0.10000        1.1000      szone          1.000      -.1000        1
slowcoef_sq5 log    factor   0.1118150      0.10000        1.1000      szone          1.000      -.1000        1
slowcoef_sq6 log    factor   0.1020930      0.10000        1.1000      szone          1.000      -.1000        1
slowcoef_sq7 log    factor   0.1085350      0.10000        1.1000      szone          1.000      -.1000        1
slowcoef_sq8 log    factor   0.1013930      0.10000        1.1000      szone          1.000      -.1000        1
ssrmax_coef0 fixed  factor    1.000000      1.0000        20.000      szone          1.000       0.000        1
ssrmax_coef1 fixed  factor    1.000000      1.0000        20.000      szone          1.000       0.000        1
ssrmax_coef2 fixed  factor    1.000000      1.0000        20.000      szone          1.000       0.000        1
ssrmax_coef3 fixed  factor    1.000000      1.0000        20.000      szone          1.000       0.000        1
ssrmax_coef4 fixed  factor    1.000000      1.0000        20.000      szone          1.000       0.000        1
ssrmax_coef5 fixed  factor    1.000000      1.0000        20.000      szone          1.000       0.000        1
ssrmax_coef6 fixed  factor    1.000000      1.0000        20.000      szone          1.000       0.000        1
ssrmax_coef7 fixed  factor    1.000000      1.0000        20.000      szone          1.000       0.000        1
ssrmax_coef8 fixed  factor    1.000000      1.0000        20.000      szone          1.000       0.000        1
den_init     fixed  factor   0.1096300      1.00000e-02   0.50000      snow           1.000       0.000        1
radj_sppt    fixed  factor    1.100000      0.10000        1.1000      solrad         1.000      -.1000        1
freeh2o_cap  fixed  factor   1.0000000E-02  1.00000e-02   0.20000      snow           1.000       0.000        1
settle_const fixed  factor   1.4683700E-02  1.00000e-02   0.50000      snow           1.000       0.000        1
ssr2gw_rate0 log    factor   0.6336680      0.10000        1.1000      szone          1.000      -.1000        1
ssr2gw_rate1 log    factor   0.6099590      0.10000        1.1000      szone          1.000      -.1000        1
ssr2gw_rate2 log    factor   0.4907930      0.10000        1.1000      szone          1.000      -.1000        1
ssr2gw_rate3 log    factor    1.098830      0.10000        1.1000      szone          1.000      -.1000        1
ssr2gw_rate4 log    factor    1.100000      0.10000        1.1000      szone          1.000      -.1000        1
ssr2gw_rate5 log    factor   0.6884750      0.10000        1.1000      szone          1.000      -.1000        1
ssr2gw_rate6 log    factor   0.4703450      0.10000        1.1000      szone          1.000      -.1000        1
ssr2gw_rate7 log    factor   0.9256060      0.10000        1.1000      szone          1.000      -.1000        1
ssr2gw_rate8 log    factor   0.6535130      0.10000        1.1000      szone          1.000      -.1000        1
ppt_rad_adj  fixed  factor   0.1963900      0.10000       0.60000      precip         1.000      -.1000        1
slowcoef_li0 log    factor   0.1076240      0.10000        1.1000      szone          1.000      -.1000        1