pcf
* control data
restart regularisation
     80  13627      1      0    102  
    1    9 double point  1    0  0
   25.000       -3.0000      0.3  0.03  10     999
      0.100  10.0  0.001
 0.1
    50  0.005  4  4  0.005  4
1  1  1  1 nojcosaveitn reisaveitn
* singular value decomposition
     1
    80  5.0000000E-07
     0
* svd assist
cal_prms_mf_final4a_reg.pst
cal_prms_mf_final4a_reg.jco
    1    2    0    1    0
* parameter groups
 pargp absolute    0.015  0.0  switch    2.0 parabolic
* parameter data
par1         none  relative   10.000     1.0e-20  1.0e20  pargp  1.0  -10.000      1
par2         none  relative   10.000     1.0e-20  1.0e20  pargp  1.0  -10.000      1
par3         none  relative   10.000     1.0e-20  1.0e20  pargp  1.0  -10.000      1
par4         none  relative   10.000     1.0e-20  1.0e20  pargp  1.0  -10.000      1
par5         none  relative   10.000     1.0e-20  1.0e20  pargp  1.0  -10.000      1
par6         none  relative   10.000     1.0e-20  1.0e20  pargp  1.0  -10.000      1
par7         none  relative   10.000     1.0e-20  1.0e20  pargp  1.0  -10.000      1
par8         none  relative   10.000     1.0e-20  1.0e20  pargp  1.0  -10.000      1
par9         none  relative   10.000     1.0e-20  1.0e20  pargp  1.0  -10.000      1
par10        none  relative   10.000     1.0e-20  1.0e20  pargp  1.0  -10.000      1
par11        none  relative   10.000     1.0e-20  1.0e20  pargp  1.0  -10.000      1
par12        none  relative   10.000     1.0e-20  1.0e20  pargp  1.0  -10.000      1
par13        none  relative   10.000     1.0e-20  1.0e20  pargp  1.0  -10.000      1
par14        none  relative   10.000     1.0e-20  1.0e20  pargp  1.0  -10.000      1
par15        none  relative   10.000     1.0e-20  1.0e20  pargp  1.0  -10.000      1
par16        none  relative   10.000     1.0e-20  1.0e20  pargp  1.0  -10.000      1
par17        none  relative   10.000     1.0e-20  1.0e20  pargp  1.0  -10.000      1
par18        none  relative   10.000     1.0e-20  1.0e20  pargp  1.0  -10.000      1
par19        none  relative   10.000     1.0e-20  1.0e20  pargp  1.0  -10.000      1
par20        none  relative   10.000     1.0e-20  1.0e20  pargp  1.0  -10.000      1
par21        none  relative   10.000     1.0e-20  1.0e20  pargp  1.0  -10.000      1
par22        none  relative   10.000     1.0e-20  1.0e20  pargp  1.0  -10.000      1
par23        none  relative   10.000     1.0e-20  1.0e20  pargp  1.0  -10.000      1
par24        none  relative   10.000     1.0e-20  1.0e20  pargp  1.0  -10.000      1
par25        none  relative   10.000     1.0e-20  1.0e20  pargp  1.0  -10.000      1
par26        none  relative   10.000     1.0e-20  1.0e20  pargp  1.0  -10.000      1
par27        none  relative   10.000     1.0e-20  1.0e20  pargp  1.0  -10.000      1
par28        none  relative   10.000     1.0e-20  1.0e20  pargp  1.0  -10.000      1
par29        none  relative   10.000     1.0e-20  1.0e20  pargp  1.0  -10.000      1
par30        none  relative   10.000     1.0e-20  1.0e20  pargp  1.0  -10.000      1
par31        none  relative   10.000     1.0e-20  1.0e20  pargp  1.0  -10.000      1
par32        none  relative   10.000     1.0e-20  1.0e20  pargp  1.0  -10.000      1
par33        none  relative   10.000     1.0e-20  1.0e20  pargp  1.0  -10.000      1
par34        none  relative   10.000     1.0e-20  1.0e20  pargp  1.0  -10.000      1
par35        none  relative   10.000     1.0e-20  1.0e20  pargp  1.0  -10.000      1
par36        none  relative   10.000     1.0e-20  1.0e20  pargp  1.0  -10.000      1
par37        none  relative   10.000     1.0e-20  1.0e20  pargp  1.0  -10.000      1
par38        none  relative   10.000     1.0e-20  1.0e20  pargp  1.0  -10.000      1
par39        none  relative   10.000     1.0e-20  1.0e20  pargp  1.0  -10.000      1
par40        none  relative   10.000     1.0e-20  1.0e20  pargp  1.0  -10.000      1
par41        none  relative   10.000     1.0e-20  1.0e20  pargp  1.0  -10.000      1
par42        none  relative   10.000     1.0e-20  1.0e20  pargp  1.0  -10.000      1
par43        none  relative   10.000     1.0e-20  1.0e20  pargp  1.0  -10.000      1
par44        none  relative   10.000     1.0e-20  1.0e20  pargp  1.0  -10.000      1
par45        none  relative   10.000     1.0e-20  1.0e20  pargp  1.0  -10.000      1
par46        none  relative   10.000     1.0e-20  1.0e20  pargp  1.0  -10.000      1
par47        none  relative   10.000     1.0e-20  1.0e20  pargp  1.0  -10.000      1
par48        none  relative   10.000     1.0e-20  1.0e20  pargp  1.0  -10.000      1
par49        none  relative   10.000     1.0e-20  1.0e20  pargp  1.0  -10.000      1
par50        none  relative   10.000     1.0e-20  1.0e20  pargp  1.0  -10.000      1
par51        none  relative   10.000     1.0e-20  1.0e20  pargp  1.0  -10.000      1
par52        none  relative   10.000     1.0e-20  1.0e20  pargp  1.0  -10.000      1
par53        none  relative   10.000     1.0e-20  1.0e20  pargp  1.0  -10.000      1
par54        none  relative   10.000     1.0e-20  1.0e20  pargp  1.0  -10.000      1
par55        none  relative   10.000     1.0e-20  1.0e20  pargp  1.0  -10.000      1
par56        none  relative   10.000     1.0e-20  1.0e20  pargp  1.0  -10.000      1
par57        none  relative   10.000     1.0e-20  1.0e20  pargp  1.0  -10.000      1
par58        none  relative   10.000     1.0e-20  1.0e20  pargp  1.0  -10.000      1
par59        none  relative   10.000     1.0e-20  1.0e20  pargp  1.0  -10.000      1
par60        none  relative   10.000     1.0e-20  1.0e20  pargp  1.0  -10.000      1
par61        none  relative   10.000     1.0e-20  1.0e20  pargp  1.0  -10.000      1
par62        none  relative   10.000     1.0e-20  1.0e20  pargp  1.0  -10.000      1
par63        none  relative   10.000     1.0e-20  1.0e20  pargp  1.0  -10.000      1
par64        none  relative   10.000     1.0e-20  1.0e20  pargp  1.0  -10.000      1
par65        none  relative   10.000     1.0e-20  1.0e20  pargp  1.0  -10.000      1
par66        none  relative   10.000     1.0e-20  1.0e20  pargp  1.0  -10.000      1
par67        none  relative   10.000     1.0e-20  1.0e20  pargp  1.0  -10.000      1
par68        none  relative   10.000     1.0e-20  1.0e20  pargp  1.0  -10.000      1
par69        none  relative   10.000     1.0e-20  1.0e20  pargp  1.0  -10.000      1
par70        none  relative   10.000     1.0e-20  1.0e20  pargp  1.0  -10.000      1
par71        none  relative   10.000     1.0e-20  1.0e20  pargp  1.0  -10.000      1
par72        none  relative   10.000     1.0e-20  1.0e20  pargp  1.0  -10.000      1
par73        none  relative   10.000     1.0e-20  1.0e20  pargp  1.0  -10.000      1
par74        none  relative   10.000     1.0e-20  1.0e20  pargp  1.0  -10.000      1
par75        none  relative   10.000     1.0e-20  1.0e20  pargp  1.0  -10.000      1
par76        none  relative   10.000     1.0e-20  1.0e20  pargp  1.0  -10.000      1
par77        none  relative   10.000     1.0e-20  1.0e20  pargp  1.0  -10.000      1
par78        none  relative   10.000     1.0e-20  1.0e20  pargp  1.0  -10.000      1
par79        none  relative   10.000     1.0e-20  1.0e20  pargp  1.0  -10.000      1
par80        none  relative   10.000     1.0e-20  1.0e20  pargp  1.0  -10.000      1
* observation groups
T1
T2
T5
LTER
PINT
head_diff
LakeStg
GWToLTERLake
GWToLake
StreamFlux
Depth
Time
LakeToGW
stat
m_solrd
snpk
m_spet
m_potet
m_actet
lmiq_d
lalq_d
lstq_d
lnoq_d
ltrq_d
a_miq
a_alq
a_stq
a_noq
a_trq
m_miq
m_alq
m_stq
m_noq
m_trq
miq_mon
alq_mon
stq_mon
noq_mon
trq_mon
lmi_qr
lmi_qp
lmi_qf
mibf
lal_qr
lal_qp
lal_qf
albf
lst_qr
lst_qp
lst_qf
stbf
lno_qr
lno_qp
lno_qf
nobf
ltr_qp
trbf
al
bm
cr
sp
tr
ms_al
ms_bm
ms_cr
ms_sp
ms_tr
ms_day
ms_diam
ms_edith
ms_esc
ms_frank
ms_jag
ms_ljohn
ms_lrock
ms_lcanoe
ms_mann
ms_nebish
ms_nichol
ms_pallet
ms_rudy
ms_staret
ms_street
ms_unamed
ms_vcook
ms_wbirch
ms_wildw
e_miq
e_alq
e_trq
e_stq
e_noq
regul_kx
regul_kz
regul_stream
regul_lakeco
regul_unsatz
regul_runoff
regul_precip
regul_evap
regul_szone
regul_sfres
* observation data
m_solrd_1              225.2000         0.00000      m_solrd
m_solrd_2              132.0000         0.00000      m_solrd
m_solrd_3              115.1000         0.00000      m_solrd
m_solrd_4              146.5000         0.00000      m_solrd
m_solrd_5              210.3000         0.00000      m_solrd
m_solrd_6              330.7000         0.00000      m_solrd
m_solrd_7              401.7000         0.00000      m_solrd
m_solrd_8              490.6000         0.00000      m_solrd
m_solrd_9              511.5000         0.00000      m_solrd
m_solrd_10             531.5000         0.00000      m_solrd
m_solrd_11             451.0000         0.00000      m_solrd
m_solrd_12             322.0000         0.00000      m_solrd
m_solrd_13             225.2000         0.00000      m_solrd
m_solrd_14             132.0000         0.00000      m_solrd
m_solrd_15             115.1000         0.00000      m_solrd
m_solrd_16             146.5000         0.00000      m_solrd
m_solrd_17             210.3000         0.00000      m_solrd
m_solrd_18             330.7000         0.00000      m_solrd
m_solrd_19             401.7000         0.00000      m_solrd
m_solrd_20             490.6000         0.00000      m_solrd
m_solrd_21             511.5000         0.00000      m_solrd
m_solrd_22             531.5000         0.00000      m_solrd
m_solrd_23             451.0000         0.00000      m_solrd
m_solrd_24             322.0000         0.00000      m_solrd
m_solrd_25             225.2000         0.00000      m_solrd
m_solrd_26             132.0000         0.00000      m_solrd
m_solrd_27             115.1000         0.00000      m_solrd
m_solrd_28             146.5000         0.00000      m_solrd
m_solrd_29             210.3000         0.00000      m_solrd
m_solrd_30             330.7000         0.00000      m_solrd
m_solrd_31             401.7000         0.00000      m_solrd
m_solrd_32             490.6000         0.00000      m_solrd
m_solrd_33             511.5000         0.00000      m_solrd
m_solrd_34             531.5000         0.00000      m_solrd
m_solrd_35             451.0000         0.00000      m_solrd
m_solrd_36             322.0000         0.00000      m_solrd
snpk_1                 0.000000        0.750000      snpk
snpk_2                 2.000000        0.750000      snpk
snpk_3                 2.000000        0.750000      snpk
snpk_4                 2.000000        0.750000      snpk
snpk_5                 2.000000        0.750000      snpk
snpk_6                 4.000000        0.750000      snpk
snpk_7                 4.000000        0.750000      snpk
snpk_8                 7.000000        0.750000      snpk
snpk_9                 9.000000        0.750000      snpk
snpk_10                12.00000        0.750000      snpk
snpk_11                11.00000        0.750000      snpk
snpk_12                15.00000        0.750000      snpk
snpk_13                20.00000        0.750000      snpk
snpk_14                18.00000        0.750000      snpk
snpk_15                16.00000        0.750000      snpk
snpk_16                16.00000        0.750000      snpk
snpk_17                17.00000        0.750000      snpk
snpk_18                17.00000        0.750000      snpk
snpk_19                13.00000        0.750000      snpk
snpk_20                17.00000        0.750000      snpk
snpk_21                20.00000        0.750000      snpk
snpk_22                10.00000        0.750000      snpk
snpk_23                6.000000        0.750000      snpk
snpk_24                0.000000        0.750000      snpk
snpk_25                8.000000        0.750000      snpk
snpk_26                9.000000        0.750000      snpk
snpk_27                0.000000        0.750000      snpk
snpk_28                1.000000        0.750000      snpk
snpk_29                7.000000        0.750000      snpk
snpk_30                2.000000        0.750000      snpk
snpk_31                6.000000        0.750000      snpk
snpk_32                6.000000        0.750000      snpk
snpk_33                6.000000        0.750000      snpk
snpk_34                5.000000        0.750000      snpk
snpk_35                8.000000        0.750000      snpk
snpk_36                9.000000        0.750000      snpk
snpk_37                15.00000        0.750000      snpk
snpk_38                16.00000        0.750000      snpk
snpk_39                13.00000        0.750000      snpk
snpk_40                16.00000        0.750000      snpk
snpk_41                16.00000        0.750000      snpk
snpk_42                20.00000        0.750000      snpk
snpk_43                10.00000        0.750000      snpk
snpk_44                13.00000        0.750000      snpk
snpk_45                8.000000        0.750000      snpk
snpk_46                6.000000        0.750000      snpk
snpk_47                5.000000        0.750000      snpk
snpk_48                4.000000        0.750000      snpk
snpk_49                3.000000        0.750000      snpk
snpk_50                0.000000        0.750000      snpk
snpk_51                0.000000        0.750000      snpk
snpk_52                6.000000        0.750000      snpk
snpk_53                3.000000        0.750000      snpk
snpk_54                5.000000        0.750000      snpk
snpk_55                7.000000        0.750000      snpk
snpk_56                4.000000        0.750000      snpk
snpk_57                5.000000        0.750000      snpk
snpk_58                5.000000        0.750000      snpk
snpk_59                5.000000        0.750000      snpk
snpk_60                11.00000        0.750000      snpk
snpk_61                8.000000        0.750000      snpk
snpk_62                9.000000        0.750000      snpk
snpk_63                14.00000        0.750000      snpk
snpk_64                12.00000        0.750000      snpk
snpk_65                11.00000        0.750000      snpk
snpk_66                18.00000        0.750000      snpk
snpk_67                5.000000        0.750000      snpk
snpk_68                0.000000        0.750000      snpk
snpk_69                0.000000        0.750000      snpk
snpk_70                1.000000        0.750000      snpk
snpk_71                4.000000        0.750000      snpk
snpk_72                5.000000        0.750000      snpk
snpk_73                9.000000        0.750000      snpk
snpk_74                10.00000        0.750000      snpk
snpk_75                17.00000        0.750000      snpk
snpk_76                18.00000        0.750000      snpk
snpk_77                19.00000        0.750000      snpk
snpk_78                23.00000        0.750000      snpk
snpk_79                19.00000        0.750000      snpk
snpk_80                24.00000        0.750000      snpk
snpk_81                21.00000        0.750000      snpk
snpk_82                31.00000        0.750000      snpk
snpk_83                29.00000        0.750000      snpk
snpk_84                26.00000        0.750000      snpk
snpk_85                25.00000        0.750000      snpk
snpk_86                23.00000        0.750000      snpk
snpk_87                25.00000        0.750000      snpk
snpk_88                20.00000        0.750000      snpk
snpk_89                19.00000        0.750000      snpk
snpk_90                33.00000        0.750000      snpk
snpk_91                24.00000        0.750000      snpk
snpk_92                20.00000        0.750000      snpk
snpk_93                16.00000        0.750000      snpk
snpk_94                7.000000        0.750000      snpk
snpk_95                4.000000        0.750000      snpk
snpk_96                0.000000        0.750000      snpk
snpk_97                0.000000        0.750000      snpk
snpk_98                6.000000        0.750000      snpk
snpk_99                2.000000        0.750000      snpk
snpk_100               7.000000        0.750000      snpk
snpk_101               4.000000        0.750000      snpk
snpk_102               13.00000        0.750000      snpk
snpk_103               16.00000        0.750000      snpk
snpk_104               25.00000        0.750000      snpk
snpk_105               28.00000        0.750000      snpk
snpk_106               30.00000        0.750000      snpk
snpk_107               27.00000        0.750000      snpk
snpk_108               38.00000        0.750000      snpk
snpk_109               30.00000        0.750000      snpk
snpk_110               29.00000        0.750000      snpk
snpk_111               27.00000        0.750000      snpk
snpk_112               26.00000        0.750000      snpk
snpk_113               28.00000        0.750000      snpk
snpk_114               40.00000        0.750000      snpk
snpk_115               33.00000        0.750000      snpk
snpk_116               27.00000        0.750000      snpk
snpk_117               22.00000        0.750000      snpk
snpk_118               13.00000        0.750000      snpk
snpk_119               5.000000        0.750000      snpk
snpk_120               0.000000        0.750000      snpk
snpk_121               0.000000        0.750000      snpk
snpk_122               0.000000        0.750000      snpk
snpk_123               3.000000        0.750000      snpk
snpk_124               8.000000        0.750000      snpk
snpk_125               3.000000        0.750000      snpk
snpk_126               8.000000        0.750000      snpk
snpk_127               6.000000        0.750000      snpk
snpk_128               4.000000        0.750000      snpk
snpk_129               4.000000        0.750000      snpk
snpk_130               9.000000        0.750000      snpk
snpk_131               6.000000        0.750000      snpk
snpk_132               20.00000        0.750000      snpk
snpk_133               18.00000        0.750000      snpk
snpk_134               16.00000        0.750000      snpk
snpk_135               20.00000        0.750000      snpk
snpk_136               17.00000        0.750000      snpk
snpk_137               11.00000        0.750000      snpk
snpk_138               9.000000        0.750000      snpk
snpk_139               5.000000        0.750000      snpk
snpk_140               15.00000        0.750000      snpk
snpk_141               10.00000        0.750000      snpk
snpk_142               5.000000        0.750000      snpk
snpk_143               0.000000        0.750000      snpk
snpk_144               0.000000        0.750000      snpk
snpk_145               8.000000        0.750000      snpk
snpk_146               9.000000        0.750000      snpk
snpk_147               12.00000        0.750000      snpk
snpk_148               12.00000        0.750000      snpk
snpk_149               14.00000        0.750000      snpk
snpk_150               24.00000        0.750000      snpk
snpk_151               21.00000        0.750000      snpk
snpk_152               20.00000        0.750000      snpk
snpk_153               17.00000        0.750000      snpk
snpk_154               23.00000        0.750000      snpk
snpk_155               19.00000        0.750000      snpk
snpk_156               21.00000        0.750000      snpk
snpk_157               13.00000        0.750000      snpk
snpk_158               17.00000        0.750000      snpk
snpk_159               13.00000        0.750000      snpk
snpk_160               1.000000        0.750000      snpk
snpk_161               0.000000        0.750000      snpk
snpk_162               0.000000        0.750000      snpk
snpk_163               2.000000        0.750000      snpk
snpk_164               7.000000        0.750000      snpk
snpk_165               6.000000        0.750000      snpk
snpk_166               11.00000        0.750000      snpk
snpk_167               13.00000        0.750000      snpk
snpk_168               12.00000        0.750000      snpk
snpk_169               15.00000        0.750000      snpk
snpk_170               14.00000        0.750000      snpk
snpk_171               18.00000        0.750000      snpk
snpk_172               19.00000        0.750000      snpk
snpk_173               24.00000        0.750000      snpk
snpk_174               8.000000        0.750000      snpk
snpk_175               3.000000        0.750000      snpk
snpk_176               5.000000        0.750000      snpk
snpk_177               2.000000        0.750000      snpk
snpk_178               0.000000        0.750000      snpk
snpk_179               0.000000        0.750000      snpk
snpk_180               6.000000        0.750000      snpk
snpk_181               5.000000        0.750000      snpk
snpk_182               4.000000        0.750000      snpk
snpk_183               6.000000        0.750000      snpk
snpk_184               11.00000        0.750000      snpk
snpk_185               14.00000        0.750000      snpk
snpk_186               15.00000        0.750000      snpk
snpk_187               12.00000        0.750000      snpk
snpk_188               16.00000        0.750000      snpk
snpk_189               15.00000        0.750000      snpk
snpk_190               17.00000        0.750000      snpk
snpk_191               15.00000        0.750000      snpk
snpk_192               24.00000        0.750000      snpk
snpk_193               20.00000        0.750000      snpk
snpk_194               23.00000        0.750000      snpk
snpk_195               19.00000        0.750000      snpk
snpk_196               28.00000        0.750000      snpk
snpk_197               19.00000        0.750000      snpk
snpk_198               16.00000        0.750000      snpk
snpk_199               12.00000        0.750000      snpk
snpk_200               0.000000        0.750000      snpk
snpk_201               0.000000        0.750000      snpk
snpk_202               5.000000        0.750000      snpk
snpk_203               4.000000        0.750000      snpk
snpk_204               3.000000        0.750000      snpk
snpk_205               7.000000        0.750000      snpk
snpk_206               5.000000        0.750000      snpk
snpk_207               3.000000        0.750000      snpk
snpk_208               12.00000        0.750000      snpk
snpk_209               6.000000        0.750000      snpk
snpk_210               3.000000        0.750000      snpk
snpk_211               13.00000        0.750000      snpk
snpk_212               9.000000        0.750000      snpk
snpk_213               18.00000        0.750000      snpk
snpk_214               13.00000        0.750000      snpk
snpk_215               22.00000        0.750000      snpk
snpk_216               20.00000        0.750000      snpk
snpk_217               16.00000        0.750000      snpk
snpk_218               20.00000        0.750000      snpk
snpk_219               11.00000        0.750000      snpk
snpk_220               0.000000        0.750000      snpk
snpk_221               0.000000        0.750000      snpk
snpk_222               5.000000        0.750000      snpk
snpk_223               1.000000        0.750000      snpk
snpk_224               2.000000        0.750000      snpk
snpk_225               1.000000        0.750000      snpk
snpk_226               1.000000        0.750000      snpk
snpk_227               2.000000        0.750000      snpk
snpk_228               2.000000        0.750000      snpk
snpk_229               4.000000        0.750000      snpk
snpk_230               6.000000        0.750000      snpk
snpk_231               14.00000        0.750000      snpk
snpk_232               14.00000        0.750000      snpk
snpk_233               8.000000        0.750000      snpk
snpk_234               8.000000        0.750000      snpk
snpk_235               14.00000        0.750000      snpk
snpk_236               11.00000        0.750000      snpk
snpk_237               1.000000        0.750000      snpk
snpk_238               8.000000        0.750000      snpk
snpk_239               2.000000        0.750000      snpk
snpk_240               7.000000        0.750000      snpk
snpk_241               0.000000        0.750000      snpk
snpk_242               2.000000        0.750000      snpk
snpk_243               0.000000        0.750000      snpk
snpk_244               0.000000        0.750000      snpk
snpk_245               4.000000        0.750000      snpk
snpk_246               2.000000        0.750000      snpk
snpk_247               10.00000        0.750000      snpk
snpk_248               13.00000        0.750000      snpk
snpk_249               10.00000        0.750000      snpk
snpk_250               6.000000        0.750000      snpk
snpk_251               8.000000        0.750000      snpk
snpk_252               17.00000        0.750000      snpk
snpk_253               18.00000        0.750000      snpk
snpk_254               17.00000        0.750000      snpk
snpk_255               21.00000        0.750000      snpk
snpk_256               24.00000        0.750000      snpk
snpk_257               20.00000        0.750000      snpk
snpk_258               30.00000        0.750000      snpk
snpk_259               19.00000        0.750000      snpk
snpk_260               34.00000        0.750000      snpk
snpk_261               28.00000        0.750000      snpk
snpk_262               32.00000        0.750000      snpk
snpk_263               28.00000        0.750000      snpk
snpk_264               20.00000        0.750000      snpk
snpk_265               5.000000        0.750000      snpk
snpk_266               0.000000        0.750000      snpk
snpk_267               0.000000        0.750000      snpk
snpk_268               6.000000        0.750000      snpk
snpk_269               8.000000        0.750000      snpk
snpk_270               13.00000        0.750000      snpk
snpk_271               12.00000        0.750000      snpk
snpk_272               13.00000        0.750000      snpk
snpk_273               11.00000        0.750000      snpk
snpk_274               12.00000        0.750000      snpk
snpk_275               11.00000        0.750000      snpk
snpk_276               23.00000        0.750000      snpk
snpk_277               15.00000        0.750000      snpk
snpk_278               18.00000        0.750000      snpk
snpk_279               20.00000        0.750000      snpk
snpk_280               21.00000        0.750000      snpk
snpk_281               25.00000        0.750000      snpk
snpk_282               22.00000        0.750000      snpk
snpk_283               25.00000        0.750000      snpk
snpk_284               21.00000        0.750000      snpk
snpk_285               28.00000        0.750000      snpk
snpk_286               21.00000        0.750000      snpk
snpk_287               8.000000        0.750000      snpk
snpk_288               0.000000        0.750000      snpk
snpk_289               0.000000        0.750000      snpk
snpk_290               6.000000        0.750000      snpk
snpk_291               8.000000        0.750000      snpk
snpk_292               2.000000        0.750000      snpk
snpk_293               2.000000        0.750000      snpk
snpk_294               4.000000        0.750000      snpk
snpk_295               9.000000        0.750000      snpk
snpk_296               7.000000        0.750000      snpk
snpk_297               9.000000        0.750000      snpk
snpk_298               8.000000        0.750000      snpk
snpk_299               10.00000        0.750000      snpk
snpk_300               7.000000        0.750000      snpk
snpk_301               19.00000        0.750000      snpk
snpk_302               18.00000        0.750000      snpk
snpk_303               19.00000        0.750000      snpk
snpk_304               18.00000        0.750000      snpk
snpk_305               24.00000        0.750000      snpk
snpk_306               25.00000        0.750000      snpk
snpk_307               18.00000        0.750000      snpk
snpk_308               25.00000        0.750000      snpk
snpk_309               17.00000        0.750000      snpk
snpk_310               11.00000        0.750000      snpk
snpk_311               4.000000        0.750000      snpk
snpk_312               0.000000        0.750000      snpk
snpk_313               0.000000        0.750000      snpk
snpk_314               4.000000        0.750000      snpk
snpk_315               0.000000        0.750000      snpk
snpk_316               0.000000        0.750000      snpk
snpk_317               7.000000        0.750000      snpk
snpk_318               7.000000        0.750000      snpk
snpk_319               3.000000        0.750000      snpk
snpk_320               3.000000        0.750000      snpk
snpk_321               7.000000        0.750000      snpk
snpk_322               7.000000        0.750000      snpk
snpk_323               6.000000        0.750000      snpk
snpk_324               5.000000        0.750000      snpk
snpk_325               13.00000        0.750000      snpk
snpk_326               15.00000        0.750000      snpk
snpk_327               6.000000        0.750000      snpk
snpk_328               8.000000        0.750000      snpk
snpk_329               0.000000        0.750000      snpk