pcf
* control data
restart estimation
     197   50974      11      0      72
     4     1   single   point   1   0   0
25.0   -3.0    0.3    0.03    12  999	  LAMFORGIVE
5.0   5.0   1.0e-3
0.1  noaui
0   .005  4   4  .005   4
1    1    1   1  nojcosaveitn reisaveitn parsaveitn
* singular value decomposition
     1
    84  5.0000000E-07
     0
* parameter groups
precip       relative     1.0000E-02   0.000      switch      2.000      parabolic
intercept    relative     1.0000E-02   0.000      switch      2.000      parabolic
et           relative     1.0000E-02   0.000      switch      2.000      parabolic
soilzone     relative     1.0000E-02   0.000      switch      2.000      parabolic
runoff       relative     1.0000E-02   0.000      switch      2.000      parabolic
rchg	     relative     1.0000E-02   0.000      switch      2.000      parabolic
strmbed	     relative     1.0000E-02   0.000      switch      2.000      parabolic
uzf	     relative     1.0000E-02   0.000      switch      2.000      parabolic
storage	     relative     1.0000E-02   0.000      switch      2.000      parabolic
Kh	     relative     1.0000E-02   0.000      switch      2.000      parabolic
Kv	     relative     1.0000E-02   0.000      switch      2.000      parabolic
* parameter data
rchgma85     fixed  factor    1.204084      1.00000e-003  1.000e+005    rchg          1.0         0.0          1
streamkz     log    factor   0.1284405      1.00000e-002  1.000e+002   strmbed        1.0         0.0          1
streamthk    fixed  factor    1.000000      1.00000e-002  1.000e+002   strmbed        1.0         0.0          1
surfdep      log    factor    1.954951      0.0000100     10000.000000  uzf           1.0         0.0          1
vks_mult     log    factor   7.1989372E-02  0.0000100     10000.000000  uzf           1.0         0.0          1
bc-eps 	     fixed  factor    3.500000      3.0000000     4.0000000000  uzf           1.0         0.0          1
thtsmult     tied   factor   0.9544075      1.00000e-02   1.00000e+01   uzf           1.0         0.0          1
sy_mult      log    factor   0.9402462      1.00000e-02   5.00000e+01  storage        1.0         0.0          1
s_mult       log    factor   0.2374090      1.00000e-02   1.00000e+01  storage        1.0         0.0          1
l1khmlt	     log    factor   0.7190018      0.0000100     10000.000000  kh            1.0         0.0          1
l2khmlt	     log    factor    1.022212      0.0000100     10000.000000  kh            1.0         0.0          1
l3khmlt	     log    factor   0.5740284      0.0000100     10000.000000  kh            1.0         0.0          1
l4khmlt	     log    factor    1.157918      0.0000100     10000.000000  kh            1.0         0.0          1
l5khmlt	     log    factor    1.265379      0.0000100     10000.000000  kh            1.0         0.0          1
l6khmlt	     log    factor   0.9524579      0.0000100     10000.000000  kh            1.0         0.0          1
l1kvmlt	     log    factor   0.6745551      0.0000100     10000.000000  kv            1.0         0.0          1
l2kvmlt	     log    factor    2.448969      0.0000100     10000.000000  kv            1.0         0.0          1
l3kvmlt      log    factor   0.6309446      0.0000100     10000.000000  kv            1.0         0.0          1
l4kvmlt      log    factor   0.4681404      0.0000100     10000.000000  kv            1.0         0.0          1
l5kvmlt      log    factor   0.7749580      0.0000100     10000.000000  kv            1.0         0.0          1
l6kvmlt      log    factor    1.495871      0.0000100     10000.000000  kv            1.0         0.0          1
adj_rain     log    factor   6.1700000E-02  6.17000e-02   7.36000e-02  precip         1.000       0.000        1
adj_snow     log    factor   0.1626529      0.13700       0.16400      precip         1.000       0.000        1
snow_intcp_0 fixed  factor   2.6800000E-02  1.00000e-06   0.13800      intercept      1.000       0.000        1
snow_intcp_1 fixed  factor   3.4200000E-02  1.00000e-06   0.15900      intercept      1.000       0.000        1
snow_intcp_2 fixed  factor   2.8200000E-02  1.00000e-06   0.13500      intercept      1.000       0.000        1
snow_intcp_3 fixed  factor   4.1300000E-02  1.00000e-06   0.17100      intercept      1.000       0.000        1
snow_intcp_4 fixed  factor   1.2800000E-02  1.00000e-06   6.70000e-02  intercept      1.000       0.000        1
snow_intcp_5 fixed  factor   4.5000000E-02  1.00000e-06   0.17700      intercept      1.000       0.000        1
snow_intcp_6 fixed  factor   1.2600000E-02  1.00000e-06   5.84000e-02  intercept      1.000       0.000        1
snow_intcp_7 fixed  factor   2.9500000E-02  1.00000e-06   0.15200      intercept      1.000       0.000        1
snow_intcp_8 fixed  factor   3.2900000E-02  1.00000e-06   0.15900      intercept      1.000       0.000        1
srain_int_0  fixed  factor   4.4800000E-02  5.78000e-03   8.38000e-02  intercept      1.000       0.000        1
srain_int_1  fixed  factor   4.7400000E-02  8.80000e-03   8.60000e-02  intercept      1.000       0.000        1
srain_int_2  fixed  factor   4.5400000E-02  1.18000e-02   7.90000e-02  intercept      1.000       0.000        1
srain_int_3  fixed  factor   4.9600000E-02  9.67000e-03   8.96000e-02  intercept      1.000       0.000        1
srain_int_4  fixed  factor   4.0900000E-02  2.42000e-02   5.76000e-02  intercept      1.000       0.000        1
srain_int_5  fixed  factor   5.0800000E-02  1.01000e-02   9.14000e-02  intercept      1.000       0.000        1
srain_int_6  fixed  factor   3.8500000E-02  1.59000e-02   6.11000e-02  intercept      1.000       0.000        1
srain_int_7  fixed  factor   4.6000000E-02  8.39000e-03   8.36000e-02  intercept      1.000       0.000        1
srain_int_8  fixed  factor   4.7100000E-02  8.25000e-03   8.59000e-02  intercept      1.000       0.000        1
wrain_int_0  fixed  factor   3.9300000E-02  2.18000e-02   5.69000e-02  intercept      1.000       0.000        1
wrain_int_1  fixed  factor   4.0000000E-02  2.40000e-02   5.60000e-02  intercept      1.000       0.000        1
wrain_int_2  fixed  factor   4.0000000E-02  2.40000e-02   5.60000e-02  intercept      1.000       0.000        1
wrain_int_3  fixed  factor   4.0000000E-02  2.40000e-02   5.60000e-02  intercept      1.000       0.000        1
wrain_int_4  fixed  factor   4.0000000E-02  2.40000e-02   5.60000e-02  intercept      1.000       0.000        1
wrain_int_5  fixed  factor   4.0000000E-02  2.40000e-02   5.60000e-02  intercept      1.000       0.000        1
wrain_int_6  fixed  factor   3.5800000E-02  2.55000e-03   6.90000e-02  intercept      1.000       0.000        1
wrain_int_7  fixed  factor   4.0000000E-02  2.40000e-02   5.60000e-02  intercept      1.000       0.000        1
wrain_int_8  fixed  factor   4.0000000E-02  2.40000e-02   5.60000e-02  intercept      1.000       0.000        1
jhcoefhru_0  fixed  factor    13.00000      9.1000        16.900      et             1.000       0.000        1
jhcoefhru_1  fixed  factor    13.00000      9.1000        16.900      et             1.000       0.000        1
jhcoefhru_2  fixed  factor    13.00000      9.1000        16.900      et             1.000       0.000        1
jhcoefhru_3  fixed  factor    13.00000      9.1000        16.900      et             1.000       0.000        1
jhcoefhru_4  fixed  factor    13.00000      9.1000        16.900      et             1.000       0.000        1
jhcoefhru_5  fixed  factor    13.00000      9.1000        16.900      et             1.000       0.000        1
jhcoefhru_6  fixed  factor    13.00000      9.1000        16.900      et             1.000       0.000        1
jhcoefhru_7  fixed  factor    13.00000      9.1000        16.900      et             1.000       0.000        1
jhcoefhru_8  fixed  factor    13.00000      9.1000        16.900      et             1.000       0.000        1
jh_coef_1    fixed  factor   5.0000000E-03  5.00000e-03   5.75000e-03  et             1.000       0.000        1
jh_coef_2    fixed  factor   8.2000000E-03  6.97000e-03   1.88600e-02  et             1.000       0.000        1
jh_coef_3    fixed  factor   9.9000000E-03  8.42000e-03   2.28000e-02  et             1.000       0.000        1
jh_coef_4    fixed  factor   9.6000000E-03  8.16000e-03   2.20000e-02  et             1.000       0.000        1
jh_coef_5    fixed  factor   8.9000000E-03  7.56000e-03   1.02000e-02  et             1.000       0.000        1
jh_coef_6    fixed  factor   8.3000000E-03  7.06000e-03   9.54000e-03  et             1.000       0.000        1
jh_coef_7    fixed  factor   8.5000000E-03  7.23000e-03   1.95600e-02  et             1.000       0.000        1
jh_coef_8    fixed  factor   8.9000000E-03  7.56000e-03   2.04000e-02  et             1.000       0.000        1
jh_coef_9    fixed  factor   9.5000000E-03  8.07000e-03   2.18000e-02  et             1.000       0.000        1
jh_coef_10   fixed  factor   1.0200000E-02  8.67000e-03   2.34000e-02  et             1.000       0.000        1
jh_coef_11   fixed  factor   9.5000000E-03  8.07000e-03   2.18000e-02  et             1.000       0.000        1
jh_coef_12   fixed  factor   5.2000000E-03  5.00000e-03   1.19600e-02  et             1.000       0.000        1
fastif_lin_0 fixed    factor   0.1000000      6.00000e-02   0.14000      soilzone       1.000       0.000        1
fastif_lin_1 fixed  factor   0.1000000      6.00000e-02   0.28000      soilzone       1.000       0.000        1
fastif_lin_2 fixed  factor   0.1000000      6.00000e-02   0.28000      soilzone       1.000       0.000        1
fastif_lin_3 fixed  factor   0.1000000      6.00000e-02   0.28000      soilzone       1.000       0.000        1
fastif_lin_4 fixed  factor   0.1000000      3.00000e-02   0.14000      soilzone       1.000       0.000        1
fastif_lin_5 fixed  factor   0.1000000      6.00000e-02   0.28000      soilzone       1.000       0.000        1
fastif_lin_6 fixed  factor   0.1000000      6.00000e-02   0.28000      soilzone       1.000       0.000        1
fastif_lin_7 fixed  factor   0.1000000      6.00000e-02   0.28000      soilzone       1.000       0.000        1
fastif_lin_8 fixed  factor   0.1000000      3.00000e-02   0.14000      soilzone       1.000       0.000        1
fastif_sq_0  fixed  factor   0.8000000      0.48000        1.0000      soilzone       1.000       0.000        1
fastif_sq_1  fixed  factor   0.8000000      0.48000        1.0000      soilzone       1.000       0.000        1
fastif_sq_2  fixed  factor   0.8000000      0.48000        1.0000      soilzone       1.000       0.000        1
fastif_sq_3  fixed  factor   0.8000000      0.48000        1.0000      soilzone       1.000       0.000        1
fastif_sq_4  fixed  factor   0.8000000      0.48000        1.0000      soilzone       1.000       0.000        1
fastif_sq_5  fixed  factor   0.8000000      0.48000        1.0000      soilzone       1.000       0.000        1
fastif_sq_6  fixed  factor   0.8000000      0.48000        1.0000      soilzone       1.000       0.000        1
fastif_sq_7  fixed  factor   0.8000000      0.48000        1.0000      soilzone       1.000       0.000        1
fastif_sq_8  fixed  factor   0.8000000      0.48000        1.0000      soilzone       1.000       0.000        1
pref_flden_0 fixed  factor   4.9900000E-02  1.00000e-06   0.19300      soilzone       1.000       0.000        1
pref_flden_1 fixed  factor   5.2900000E-02  1.43000e-02   0.13000      soilzone       1.000       0.000        1
pref_flden_2 fixed  factor   5.2100000E-02  3.99000e-03   0.14800      soilzone       1.000       0.000        1
pref_flden_3 fixed  factor   5.0800000E-02  7.13000e-03   0.13800      soilzone       1.000       0.000        1
pref_flden_4 fixed  factor   4.8400000E-02  9.08000e-03   0.12700      soilzone       1.000       0.000        1
pref_flden_5 fixed  factor   5.0000000E-02  1.32000e-02   0.12400      soilzone       1.000       0.000        1
pref_flden_6 fixed  factor   5.4000000E-02  6.02000e-03   0.15000      soilzone       1.000       0.000        1
pref_flden_7 fixed  factor   5.3000000E-02  1.76000e-02   0.12400      soilzone       1.000       0.000        1
pref_flden_8 fixed  factor   5.1300000E-02  5.03000e-03   0.14400      soilzone       1.000       0.000        1
sat_thresh_0 log    factor    2.738021      1.0000        7.9700      soilzone       1.000       0.000        1
sat_thresh_1 log    factor    1.078669      1.0000        9.7100      soilzone       1.000       0.000        1
sat_thresh_2 fixed  factor    999.0000      1.00         1000.00      soilzone       1.000       0.000        1
sat_thresh_3 log    factor    12.99982      1.0000        13.000      soilzone       1.000       0.000        1
sat_thresh_4 fixed  factor    999.0000      1.00         1000.00      soilzone       1.000       0.000        1
sat_thresh_5 log    factor    5.396258      3.6000        8.4000      soilzone       1.000       0.000        1
sat_thresh_6 log    factor    8.400000      1.8000        8.4000      soilzone       1.000       0.000        1
sat_thresh_7 fixed  factor    3.000000      2.0000        5.0000      soilzone       1.000       0.000        1
sat_thresh_8 fixed  factor    999.0000      1.00         1000.00      soilzone       1.000       0.000        1
slowif_lin_0 fixed  factor   1.5000000E-02  9.00000e-03   2.10000e-02  soilzone       1.000       0.000        1
slowif_lin_1 log    factor   2.1000000E-02  9.00000e-03   2.10000e-02  soilzone       1.000       0.000        1
slowif_lin_2 log    factor   1.7173633E-02  9.00000e-03   2.10000e-02  soilzone       1.000       0.000        1
slowif_lin_3 log    factor   9.4560885E-03  9.00000e-03   2.10000e-02  soilzone       1.000       0.000        1
slowif_lin_4 log    factor   5.1315584E-03  4.50000e-03   2.10000e-02  soilzone       1.000       0.000        1
slowif_lin_5 log    factor   4.5000000E-03  4.50000e-03   2.10000e-02  soilzone       1.000       0.000        1
slowif_lin_6 log    factor   8.9658837E-03  4.50000e-03   2.10000e-02  soilzone       1.000       0.000        1
slowif_lin_7 log    factor   2.1000000E-02  9.00000e-03   2.10000e-02  soilzone       1.000       0.000        1
slowif_lin_8 log    factor   1.8974550E-02  9.00000e-03   2.10000e-02  soilzone       1.000       0.000        1
slowif_sq_0  fixed    factor   0.1000000      6.00000e-02   0.14000      soilzone       1.000       0.000        1
slowif_sq_1  log    factor   0.1161694      6.00000e-02   0.14000      soilzone       1.000       0.000        1
slowif_sq_2  log    factor   6.0000000E-02  6.00000e-02   0.14000      soilzone       1.000       0.000        1
slowif_sq_3  log    factor   6.0000000E-02  6.00000e-02   0.14000      soilzone       1.000       0.000        1
slowif_sq_4  log    factor   6.0411111E-02  6.00000e-02   0.14000      soilzone       1.000       0.000        1
slowif_sq_5  log    factor   0.1281840      6.00000e-02   0.14000      soilzone       1.000       0.000        1
slowif_sq_6  log    factor   6.0000000E-02  6.00000e-02   0.14000      soilzone       1.000       0.000        1
slowif_sq_7  log    factor   6.1537021E-02  6.00000e-02   0.14000      soilzone       1.000       0.000        1
slowif_sq_8  log    factor   6.0000000E-02  6.00000e-02   0.14000      soilzone       1.000       0.000        1
srech_mx_0   tied   factor    3.726269      0.35300        4.2100      soilzone       1.000       0.000        1
srech_mx_1   tied   factor    6.292803      0.84900        7.0000      soilzone       1.000       0.000        1
srech_mx_2   tied   factor    3.369601      0.96600        3.7100      soilzone       1.000       0.000        1
srech_mx_3   tied   factor    1.549196      0.78300        4.3500      soilzone       1.000       0.000        1
srech_mx_4   tied   factor    2.802381      1.2500         3.0200      soilzone       1.000       0.000        1
srech_mx_5   tied   factor    5.114834      1.2500         5.5000      soilzone       1.000       0.000        1
srech_mx_6   tied   factor    1.898283      1.00000e-06    4.2900      soilzone       1.000       0.000        1
srech_mx_7   tied   factor    6.309475      1.4700        6.50000      soilzone       1.000       0.000        1
srech_mx_8   tied   factor    2.198305      0.90200       7.00000      soilzone       1.000       0.000        1
soil2gwmx_0  log    factor   1.1700692E-03  1.00000e-06    5.0000      soilzone       1.000       0.000        1
soil2gwmx_1  log    factor    3.548044      1.00000e-06    5.0000      soilzone       1.000       0.000        1
soil2gwmx_2  log    factor    4.991526      1.00000e-06    5.0000      soilzone       1.000       0.000        1
soil2gwmx_3  log    factor    4.995935      1.00000e-06    5.0000      soilzone       1.000       0.000        1
soil2gwmx_4  log    factor    3.820000      1.3100        3.8200      soilzone       1.000       0.000        1
soil2gwmx_5  log    factor   2.0550161E-02  1.00000e-06    5.0000      soilzone       1.000       0.000        1
soil2gwmx_6  log    factor    1.133293      1.00000e-06    5.0000      soilzone       1.000       0.000        1
soil2gwmx_7  log    factor   1.3919068E-02  1.00000e-06    5.0000      soilzone       1.000       0.000        1
soil2gwmx_8  log    factor    3.821616      1.00000e-06    5.0000      soilzone       1.000       0.000        1
ssr2gwex_0   log    factor    1.774167      1.00000e-06    3.0000      soilzone       1.000       0.000        1
ssr2gwex_1   log    factor    2.662770      1.00000e-06    3.0000      soilzone       1.000       0.000        1
ssr2gwex_2   log    factor   9.8360405E-02  1.00000e-06    3.0000      soilzone       1.000       0.000        1
ssr2gwex_3   log    factor   0.4858097      1.00000e-06    3.0000      soilzone       1.000       0.000        1
ssr2gwex_4   log    factor   8.7483955E-02  1.00000e-06    3.0000      soilzone       1.000       0.000        1
ssr2gwex_5   log    factor    2.577153      1.00000e-06    3.0000      soilzone       1.000       0.000        1
ssr2gwex_6   log    factor   0.2085467      1.00000e-06    3.0000      soilzone       1.000       0.000        1
ssr2gwex_7   log    factor   8.7963865E-02  1.00000e-06    3.0000      soilzone       1.000       0.000        1
ssr2gwex_8   log    factor   0.2287587      1.00000e-06    3.0000      soilzone       1.000       0.000        1
ssr2gwrt_0   log    factor   3.3358043E-02  1.00000e-06   0.32800      soilzone       1.000       0.000        1
ssr2gwrt_1   log    factor   0.1659668      1.00000e-06   0.43400      soilzone       1.000       0.000        1
ssr2gwrt_2   log    factor   0.3390000      1.00000e-06   0.33900      soilzone       1.000       0.000        1
ssr2gwrt_3   log    factor   0.2469900      1.00000e-06   0.47800      soilzone       1.000       0.000        1
ssr2gwrt_4   log    factor   0.1790000      1.00000e-06   0.17900      soilzone       1.000       0.000        1
ssr2gwrt_5   log    factor   1.4094931E-03  1.00000e-06   0.41500      soilzone       1.000       0.000        1
ssr2gwrt_6   log    factor   7.5903926E-03  1.00000e-06   0.13700      soilzone       1.000       0.000        1
ssr2gwrt_7   log    factor   3.9582667E-03  1.00000e-06   0.43300      soilzone       1.000       0.000        1
ssr2gwrt_8   log    factor   0.4179658      1.00000e-06   0.43600      soilzone       1.000       0.000        1
smidx_cf_0   fixed  factor   2.7900000E-02  1.00000e-04   0.19700      runoff         1.000       0.000        1
smidx_cf_1   log    factor   1.0000000E-04  1.00000e-04   8.48000e-02  runoff         1.000       0.000        1
smidx_cf_2   log    factor   6.8343859E-04  1.00000e-04   0.12000      runoff         1.000       0.000        1
smidx_cf_3   log    factor   1.5000000E-02  1.50000e-02   3.50000e-02  runoff         1.000       0.000        1
smidx_cf_4   log    factor   1.8265129E-02  1.00000e-04   9.96000e-02  runoff         1.000       0.000        1
smidx_cf_5   log    factor   1.6762470E-02  1.50000e-02   3.50000e-02  runoff         1.000       0.000        1
smidx_cf_6   log    factor   1.1038606E-02  1.00000e-04   8.31000e-02  runoff         1.000       0.000        1
smidx_cf_7   log    factor   1.0789180E-02  1.04000e-02   4.13000e-02  runoff         1.000       0.000        1
smidx_cf_8   log    factor   1.0000000E-04  1.00000e-04   0.12700      runoff         1.000       0.000        1
smidx_ex_0   fixed  factor   0.2390000      0.20000       0.33800      runoff         1.000       0.000        1
smidx_ex_1   fixed  factor   0.2340000      0.20000       0.35100      runoff         1.000       0.000        1
smidx_ex_2   fixed  factor   0.2320000      0.20000       0.33200      runoff         1.000       0.000        1
smidx_ex_3   fixed  factor   0.2220000      0.20000       0.33200      runoff         1.000       0.000        1
smidx_ex_4   fixed  factor   0.2200000      0.20000       0.24400      runoff         1.000       0.000        1
smidx_ex_5   fixed  factor   0.2420000      0.20000       0.35500      runoff         1.000       0.000        1
smidx_ex_6   fixed  factor   0.2320000      0.20000       0.28500      runoff         1.000       0.000        1
smidx_ex_7   fixed  factor   0.2390000      0.20000       0.35600      runoff         1.000       0.000        1
smidx_ex_8   fixed  factor   0.2160000      0.20000       0.28300      runoff         1.000       0.000        1
snowinfmx_0  fixed  factor   0.7330000      1.00000e-06    1.3300      soilzone       1.000       0.000        1
snowinfmx_1  fixed  factor   0.7310000      1.00000e-06    1.2400      soilzone       1.000       0.000        1
snowinfmx_2  fixed  factor   0.7620000      1.00000e-06    1.1300      soilzone       1.000       0.000        1
snowinfmx_3  fixed  factor   0.6820000      1.00000e-06   0.88900      soilzone       1.000       0.000        1
snowinfmx_4  fixed  factor   0.7520000      1.00000e-06   0.91400      soilzone       1.000       0.000        1
snowinfmx_5  fixed  factor   0.6390000      1.00000e-06   0.70800      soilzone       1.000       0.000        1
snowinfmx_6  fixed  factor   0.8310000      1.00000e-06    1.2600      soilzone       1.000       0.000        1
snowinfmx_7  fixed  factor   0.6790000      1.00000e-06   0.96300      soilzone       1.000       0.000        1
snowinfmx_8  fixed  factor   0.7710000      1.00000e-06    1.3600      soilzone       1.000       0.000        1
smois_max_0  log    factor    4.380000      0.49100        4.3800      soilzone       1.000       0.000        1
smois_max_1  log    factor    7.386043      1.4400        8.2000      soilzone       1.000       0.000        1
smois_max_2  log    factor    3.960000      1.5400        3.9600      soilzone       1.000       0.000        1
smois_max_3  log    factor    1.827568      1.4500        9.1800      soilzone       1.000       0.000        1
smois_max_4  log    factor    3.300000      1.7400        3.3000      soilzone       1.000       0.000        1
smois_max_5  log    factor    6.026780      1.8600        8.4200      soilzone       1.000       0.000        1
smois_max_6  log    factor    2.233273      0.41800        4.3900      soilzone       1.000       0.000        1
smois_max_7  log    factor    7.400000      2.0100        7.4000      soilzone       1.000       0.000        1
smois_max_8  log    factor    2.583477      1.4800        8.0400      soilzone       1.000       0.000        1
THTSmult  Sy_mult
srech_mx_0   smois_max_0
srech_mx_1   smois_max_1
srech_mx_2   smois_max_2
srech_mx_3   smois_max_3
srech_mx_4   smois_max_4
srech_mx_5   smois_max_5
srech_mx_6   smois_max_6
srech_mx_7   smois_max_7
srech_mx_8   smois_max_8
* observation groups
sstruax_1
sstruax_2
ssolrad_2
sethay_2
q_brew_a
q_gar_a
q_bec_a
q_phbr_a
q_mazo_a
q_verm_a
q_halfp_a
q_brew_m
q_gar_m
q_bec_m
q_phbr_m
q_mazo_m
q_verm_m
q_halfp_m
q_brew_1
q_brew_2
q_gar_1
q_gar_2
q_bec_1
q_bec_2
q_phbr_1
q_phbr_2
q_mazo_2
q_verm_2
q_halfp_1
lq_brew_1
lq_brew_2
lq_gar_1
lq_gar_2
lq_bec_1
lq_bec_2
lq_phbr_1
lq_phbr_2
lq_mazo_2
lq_verm_2
lq_halfp_1
shrh36d
shrh36s
shp32s
shp36d
shp38
shslz
shgfn
shgfs
dshrh36d
dshrh36s
dshp32s
dshp36d
dshp38
dshslz
dshgfn
dshgfs
mshrh36d
mshrh36s
mshp32s
mshp36d
mshp38
mshslz
mshgfn
mshgfs
rshrh36d
rshrh36s
rshp32s
rshp36d
rshp38
rshslz
rshgfn
rshgfs
* observation data
sstruax_1_1            5.000000         0.00000      sstruax_1
sstruax_1_2            9.000000         0.00000      sstruax_1
sstruax_1_3            6.000000         0.00000      sstruax_1
sstruax_1_4            4.000000         0.00000      sstruax_1
sstruax_1_5            2.000000         0.00000      sstruax_1
sstruax_1_6           0.5000000         0.00000      sstruax_1
sstruax_1_7            3.000000         0.00000      sstruax_1
sstruax_1_8            3.000000         0.00000      sstruax_1
sstruax_1_9            3.000000         0.00000      sstruax_1
sstruax_1_10           3.000000         0.00000      sstruax_1
sstruax_1_11           3.000000         0.00000      sstruax_1
sstruax_1_12           2.000000         0.00000      sstruax_1
sstruax_1_13           2.000000         0.00000      sstruax_1
sstruax_1_14           2.000000         0.00000      sstruax_1
sstruax_1_15           3.000000         0.00000      sstruax_1
sstruax_1_16           8.000000         0.00000      sstruax_1
sstruax_1_17           14.00000         0.00000      sstruax_1
sstruax_1_18           14.00000         0.00000      sstruax_1
sstruax_1_19           14.00000         0.00000      sstruax_1
sstruax_1_20           12.00000         0.00000      sstruax_1
sstruax_1_21           12.00000         0.00000      sstruax_1
sstruax_1_22           12.00000         0.00000      sstruax_1
sstruax_1_23           12.00000         0.00000      sstruax_1
sstruax_1_24           11.00000         0.00000      sstruax_1
sstruax_1_25           14.00000         0.00000      sstruax_1
sstruax_1_26           14.00000         0.00000      sstruax_1
sstruax_1_27           13.00000         0.00000      sstruax_1
sstruax_1_28           13.00000         0.00000      sstruax_1
sstruax_1_29           13.00000         0.00000      sstruax_1
sstruax_1_30           13.00000         0.00000      sstruax_1
sstruax_1_31           15.00000         0.00000      sstruax_1
sstruax_1_32           14.00000         0.00000      sstruax_1
sstruax_1_33           14.00000         0.00000      sstruax_1
sstruax_1_34           14.00000         0.00000      sstruax_1
sstruax_1_35           14.00000         0.00000      sstruax_1
sstruax_1_36           14.00000         0.00000      sstruax_1
sstruax_1_37           14.00000         0.00000      sstruax_1
sstruax_1_38           14.00000         0.00000      sstruax_1
sstruax_1_39           16.00000         0.00000      sstruax_1
sstruax_1_40           16.00000         0.00000      sstruax_1
sstruax_1_41           17.00000         0.00000      sstruax_1
sstruax_1_42           17.00000         0.00000      sstruax_1
sstruax_1_43           17.00000         0.00000      sstruax_1
sstruax_1_44           16.00000         0.00000      sstruax_1
sstruax_1_45           16.00000         0.00000      sstruax_1
sstruax_1_46           16.00000         0.00000      sstruax_1
sstruax_1_47           16.00000         0.00000      sstruax_1
sstruax_1_48           16.00000         0.00000      sstruax_1
sstruax_1_49           21.00000         0.00000      sstruax_1
sstruax_1_50           20.00000         0.00000      sstruax_1
sstruax_1_51           23.00000         0.00000      sstruax_1
sstruax_1_52           23.00000         0.00000      sstruax_1
sstruax_1_53           23.00000         0.00000      sstruax_1
sstruax_1_54           23.00000         0.00000      sstruax_1
sstruax_1_55           22.00000         0.00000      sstruax_1
sstruax_1_56           20.00000         0.00000      sstruax_1
sstruax_1_57           17.00000         0.00000      sstruax_1
sstruax_1_58           15.00000         0.00000      sstruax_1
sstruax_1_59           14.00000         0.00000      sstruax_1
sstruax_1_60           14.00000         0.00000      sstruax_1
sstruax_1_61           14.00000         0.00000      sstruax_1
sstruax_1_62           14.00000         0.00000      sstruax_1
sstruax_1_63           12.00000         0.00000      sstruax_1
sstruax_1_64           10.00000         0.00000      sstruax_1
sstruax_1_65           10.00000         0.00000      sstruax_1
sstruax_1_66           10.00000         0.00000      sstruax_1
sstruax_1_67           10.00000         0.00000      sstruax_1
sstruax_1_68           8.000000         0.00000      sstruax_1
sstruax_1_69           8.000000         0.00000      sstruax_1
sstruax_1_70           8.000000         0.00000      sstruax_1
sstruax_1_71           10.00000         0.00000      sstruax_1
sstruax_1_72           10.00000         0.00000      sstruax_1
sstruax_1_73           10.00000         0.00000      sstruax_1
sstruax_1_74           10.00000         0.00000      sstruax_1
sstruax_1_75           12.00000         0.00000      sstruax_1
sstruax_1_76           12.00000         0.00000      sstruax_1
sstruax_1_77           12.00000         0.00000      sstruax_1
sstruax_1_78           12.00000         0.00000      sstruax_1
sstruax_1_79           12.00000         0.00000      sstruax_1
sstruax_1_80           12.00000         0.00000      sstruax_1
sstruax_1_81           11.00000         0.00000      sstruax_1
sstruax_1_82           10.00000         0.00000      sstruax_1