pcf
* control data
restart estimation
     10    751     10      0      5
     1     1   single   point   1   0   0
 1e-1   -4.0   0.3  0.03    10	    999
5.0   5.0   1.0e-3
0.1  noaui
   50  .005  4   4  .005   4
1    1    1
* singular value decomposition
1
    10  5.0000000E-07
0
* parameter groups
lzsn         relative     1.0000E-02  0.1000      switch      2.000      parabolic
infilt       relative     1.0000E-02  0.1000      switch      2.000      parabolic
deepfr       relative     0.1000      1.0000E-02  switch      2.000      parabolic
basetp       relative     0.1000      1.0000E-02  switch      2.000      parabolic
agwetp       relative     0.1000      1.0000E-02  switch      2.000      parabolic
uzsn         relative     1.0000E-02  0.1000      switch      2.000      parabolic
intfw        relative     1.0000E-02  1.0000E-02  switch      2.000      parabolic
lzetp        relative     0.1000      1.0000E-02  switch      2.000      parabolic
irctrans     relative     1.0000E-02  1.0000E-02  switch      2.000      parabolic
agwrctrans   relative     1.0000E-02  0.1000      switch      2.000      parabolic
* parameter data
lzsn         log    factor        150.00        50.000        380.00      lzsn           1.000       0.000        1
infilt       log    factor        5.0000       2.50000E-02    12.700      infilt         1.000       0.000        1
deepfr       fixed  factor       0.10000       1.00000E-05   0.50000      deepfr         1.000       0.000        1
basetp       log    factor       0.10000       1.00000E-05   0.20000      basetp         1.000       0.000        1
agwetp       fixed  factor       1.08000E-03   1.00000E-05   0.20000      agwetp         1.000       0.000        1
uzsn         log    factor        25.000        1.3000        51.000      uzsn           1.000       0.000        1
intfw        log    factor        5.0000        1.0000        10.000      intfw          1.000       0.000        1
lzetp        fixed  factor       0.50000       0.10000       0.90000      lzetp          1.000       0.000        1
irctrans     log    factor        2.5000       0.53000        5.6000      irctrans       1.000       0.000        1
agwrctrans   log    factor        50.000        5.7000        999.00      agwrctrans     1.000       0.000        1
* observation groups
lsim_flow
bsim_flow
qmax_sim
sim_vol
sim_ex
* observation data
 lsim_flow_1          0.9777193        8.28856      lsim_flow
 lsim_flow_2          0.9711980        8.28856      lsim_flow
 lsim_flow_3          0.9954746        8.28856      lsim_flow
 lsim_flow_4           1.215088        8.28856      lsim_flow
 lsim_flow_5           1.418884        8.28856      lsim_flow
 lsim_flow_6           1.475909        8.28856      lsim_flow
 lsim_flow_7           1.522632        8.28856      lsim_flow
 lsim_flow_8           1.554645        8.28856      lsim_flow
 lsim_flow_9           1.590817        8.28856      lsim_flow
 lsim_flow_10          1.624206        8.28856      lsim_flow
 lsim_flow_11          1.635738        8.28856      lsim_flow
 lsim_flow_12          1.606312        8.28856      lsim_flow
 lsim_flow_13          1.547732        8.28856      lsim_flow
 lsim_flow_14          1.475909        8.28856      lsim_flow
 lsim_flow_15          1.407485        8.28856      lsim_flow
 lsim_flow_16          1.346076        8.28856      lsim_flow
 lsim_flow_17          1.306039        8.28856      lsim_flow
 lsim_flow_18          1.301148        8.28856      lsim_flow
 lsim_flow_19          1.310874        8.28856      lsim_flow
 lsim_flow_20          1.320387        8.28856      lsim_flow
 lsim_flow_21          1.325067        8.28856      lsim_flow
 lsim_flow_22          1.322733        8.28856      lsim_flow
 lsim_flow_23          1.303600        8.28856      lsim_flow
 lsim_flow_24          1.271909        8.28856      lsim_flow
 lsim_flow_25          1.237721        8.28856      lsim_flow
 lsim_flow_26          1.216584        8.28856      lsim_flow
 lsim_flow_27          1.202928        8.28856      lsim_flow
 lsim_flow_28          1.199057        8.28856      lsim_flow
 lsim_flow_29          1.206000        8.28856      lsim_flow
 lsim_flow_30          1.215088        8.28856      lsim_flow
 lsim_flow_31          1.246174        8.28856      lsim_flow
 lsim_flow_32          1.364525        8.28856      lsim_flow
 lsim_flow_33          1.457434        8.28856      lsim_flow
 lsim_flow_34          1.522632        8.28856      lsim_flow
 lsim_flow_35          1.600180        8.28856      lsim_flow
 lsim_flow_36          1.663295        8.28856      lsim_flow
 lsim_flow_37          1.750130        8.28856      lsim_flow
 lsim_flow_38          1.822463        8.28856      lsim_flow
 lsim_flow_39          1.877984        8.28856      lsim_flow
 lsim_flow_40          1.897102        8.28856      lsim_flow
 lsim_flow_41          1.889238        8.28856      lsim_flow
 lsim_flow_42          1.868100        8.28856      lsim_flow
 lsim_flow_43          1.881230        8.28856      lsim_flow
 lsim_flow_44          1.874714        8.28856      lsim_flow
 lsim_flow_45          1.847631        8.28856      lsim_flow
 lsim_flow_46          1.820608        8.28856      lsim_flow
 lsim_flow_47          1.803549        8.28856      lsim_flow
 lsim_flow_48          1.809310        8.28856      lsim_flow
 lsim_flow_49          1.824310        8.28856      lsim_flow
 lsim_flow_50          1.826149        8.28856      lsim_flow
 lsim_flow_51          1.813109        8.28856      lsim_flow
 lsim_flow_52          1.777660        8.28856      lsim_flow
 lsim_flow_53          1.720737        8.28856      lsim_flow
 lsim_flow_54          1.649735        8.28856      lsim_flow
 lsim_flow_55          1.584460        8.28856      lsim_flow
 lsim_flow_56          1.537152        8.28856      lsim_flow
 lsim_flow_57          1.499898        8.28856      lsim_flow
 lsim_flow_58          1.471778        8.28856      lsim_flow
 lsim_flow_59          1.453556        8.28856      lsim_flow
 lsim_flow_60          1.445695        8.28856      lsim_flow
 lsim_flow_61          1.458719        8.28856      lsim_flow
 lsim_flow_62          1.471778        8.28856      lsim_flow
 lsim_flow_63          1.480000        8.28856      lsim_flow
 lsim_flow_64          1.475909        8.28856      lsim_flow
 lsim_flow_65          1.456145        8.28856      lsim_flow
 lsim_flow_66          1.420288        8.28856      lsim_flow
 lsim_flow_67          1.379151        8.28856      lsim_flow
 lsim_flow_68          1.346630        8.28856      lsim_flow
 lsim_flow_69          1.316844        8.28856      lsim_flow
 lsim_flow_70          1.287409        8.28856      lsim_flow
 lsim_flow_71          1.264615        8.28856      lsim_flow
 lsim_flow_72          1.247568        8.28856      lsim_flow
 lsim_flow_73          1.232712        8.28856      lsim_flow
 lsim_flow_74          1.214338        8.28856      lsim_flow
 lsim_flow_75          1.186433        8.28856      lsim_flow
 lsim_flow_76          1.165944        8.28856      lsim_flow
 lsim_flow_77          1.157469        8.28856      lsim_flow
 lsim_flow_78          1.150568        8.28856      lsim_flow
 lsim_flow_79          1.134629        8.28856      lsim_flow
 lsim_flow_80          1.119017        8.28856      lsim_flow
 lsim_flow_81          1.134629        8.28856      lsim_flow
 lsim_flow_82          1.208290        8.28856      lsim_flow
 lsim_flow_83          1.255834        8.28856      lsim_flow
 lsim_flow_84          1.295580        8.28856      lsim_flow
 lsim_flow_85          1.326808        8.28856      lsim_flow
 lsim_flow_86          1.354856        8.28856      lsim_flow
 lsim_flow_87          1.365056        8.28856      lsim_flow
 lsim_flow_88          1.356482        8.28856      lsim_flow
 lsim_flow_89          1.336549        8.28856      lsim_flow
 lsim_flow_90          1.309670        8.28856      lsim_flow
 lsim_flow_91          1.267945        8.28856      lsim_flow
 lsim_flow_92          1.217330        8.28856      lsim_flow
 lsim_flow_93          1.166782        8.28856      lsim_flow
 lsim_flow_94          1.119017        8.28856      lsim_flow
 lsim_flow_95          1.075796        8.28856      lsim_flow
 lsim_flow_96          1.042537        8.28856      lsim_flow
 lsim_flow_97          1.013726        8.28856      lsim_flow
 lsim_flow_98         0.9954746        8.28856      lsim_flow
 lsim_flow_99         0.9803007        8.28856      lsim_flow
 lsim_flow_100        0.9632409        8.28856      lsim_flow
 lsim_flow_101        0.9482630        8.28856      lsim_flow
 lsim_flow_102        0.9341835        8.28856      lsim_flow
 lsim_flow_103        0.9196323        8.28856      lsim_flow
 lsim_flow_104        0.9151701        8.28856      lsim_flow
 lsim_flow_105        0.9225818        8.28856      lsim_flow
 lsim_flow_106        0.9398702        8.28856      lsim_flow
 lsim_flow_107        0.9645772        8.28856      lsim_flow
 lsim_flow_108         1.087012        8.28856      lsim_flow
 lsim_flow_109         1.126434        8.28856      lsim_flow
 lsim_flow_110         1.082967        8.28856      lsim_flow
 lsim_flow_111         1.088017        8.28856      lsim_flow
 lsim_flow_112         1.142671        8.28856      lsim_flow
 lsim_flow_113         1.161727        8.28856      lsim_flow
 lsim_flow_114         1.101853        8.28856      lsim_flow
 lsim_flow_115         1.000417        8.28856      lsim_flow
 lsim_flow_116        0.9136724        8.28856      lsim_flow
 lsim_flow_117        0.8508283        8.28856      lsim_flow
 lsim_flow_118        0.8089995        8.28856      lsim_flow
 lsim_flow_119        0.7752681        8.28856      lsim_flow
 lsim_flow_120        0.7475812        8.28856      lsim_flow
 lsim_flow_121        0.7250137        8.28856      lsim_flow
 lsim_flow_122        0.7036490        8.28856      lsim_flow
 lsim_flow_123        0.6862736        8.28856      lsim_flow
 lsim_flow_124        0.6837336        8.28856      lsim_flow
 lsim_flow_125        0.6938055        8.28856      lsim_flow
 lsim_flow_126        0.7132744        8.28856      lsim_flow
 lsim_flow_127        0.7132744        8.28856      lsim_flow
 lsim_flow_128        0.7386944        8.28856      lsim_flow
 lsim_flow_129        0.6862736        8.28856      lsim_flow
 lsim_flow_130        0.6681738        8.28856      lsim_flow
 lsim_flow_131        0.6465204        8.28856      lsim_flow
 lsim_flow_132        0.6295410        8.28856      lsim_flow
 lsim_flow_133        0.6352748        8.28856      lsim_flow
 lsim_flow_134        0.6492869        8.28856      lsim_flow
 lsim_flow_135        0.6207957        8.28856      lsim_flow
 lsim_flow_136        0.5871330        8.28856      lsim_flow
 lsim_flow_137        0.5807220        8.28856      lsim_flow
 lsim_flow_138        0.5871330        8.28856      lsim_flow
 lsim_flow_139        0.5996779        8.28856      lsim_flow
 lsim_flow_140        0.5742149        8.28856      lsim_flow
 lsim_flow_141        0.5471654        8.28856      lsim_flow
 lsim_flow_142        0.5401313        8.28856      lsim_flow
 lsim_flow_143        0.5293619        8.28856      lsim_flow
 lsim_flow_144        0.5220310        8.28856      lsim_flow
 lsim_flow_145        0.5107973        8.28856      lsim_flow
 lsim_flow_146        0.5031434        8.28856      lsim_flow
 lsim_flow_147        0.5183187        8.28856      lsim_flow
 lsim_flow_148        0.4914035        8.28856      lsim_flow
 lsim_flow_149        0.4627094        8.28856      lsim_flow
 lsim_flow_150        0.4409871        8.28856      lsim_flow
 lsim_flow_151        0.4227915        8.28856      lsim_flow
 lsim_flow_152        0.4086263        8.28856      lsim_flow
 lsim_flow_153        0.3939834        8.28856      lsim_flow
 lsim_flow_154        0.3788297        8.28856      lsim_flow
 lsim_flow_155        0.3631279        8.28856      lsim_flow
 lsim_flow_156        0.3468371        8.28856      lsim_flow
 lsim_flow_157        0.3356268        8.28856      lsim_flow
 lsim_flow_158        0.3241195        8.28856      lsim_flow
 lsim_flow_159        0.3182495        8.28856      lsim_flow
 lsim_flow_160        0.3182495        8.28856      lsim_flow
 lsim_flow_161        0.3241195        8.28856      lsim_flow
 lsim_flow_162        0.3062659        8.28856      lsim_flow
 lsim_flow_163        0.2812586        8.28856      lsim_flow
 lsim_flow_164        0.2681933        8.28856      lsim_flow
 lsim_flow_165        0.2547228        8.28856      lsim_flow
 lsim_flow_166        0.2408211        8.28856      lsim_flow
 lsim_flow_167        0.2478276        8.28856      lsim_flow
 lsim_flow_168        0.2939422        8.28856      lsim_flow
 lsim_flow_169        0.3062659        8.28856      lsim_flow
 lsim_flow_170        0.3299113        8.28856      lsim_flow
 lsim_flow_171        0.4274124        8.28856      lsim_flow
 lsim_flow_172        0.4319846        8.28856      lsim_flow
 lsim_flow_173        0.4086263        8.28856      lsim_flow
 lsim_flow_174        0.3684251        8.28856      lsim_flow
 lsim_flow_175        0.3523355        8.28856      lsim_flow
 lsim_flow_176        0.3989194        8.28856      lsim_flow
 lsim_flow_177        0.4038000        8.28856      lsim_flow
 lsim_flow_178        0.3684251        8.28856      lsim_flow
 lsim_flow_179        0.3299113        8.28856      lsim_flow
 lsim_flow_180        0.3001478        8.28856      lsim_flow
 lsim_flow_181        0.2876467        8.28856      lsim_flow
 lsim_flow_182        0.3062659        8.28856      lsim_flow
 lsim_flow_183        0.2876467        8.28856      lsim_flow
 lsim_flow_184        0.2876467        8.28856      lsim_flow
 lsim_flow_185        0.3062659        8.28856      lsim_flow
 lsim_flow_186        0.3577652        8.28856      lsim_flow
 lsim_flow_187        0.3523355        8.28856      lsim_flow
 lsim_flow_188        0.3523355        8.28856      lsim_flow
 lsim_flow_189        0.4038000        8.28856      lsim_flow
 lsim_flow_190        0.4274124        8.28856      lsim_flow
 lsim_flow_191        0.4086263        8.28856      lsim_flow
 lsim_flow_192        0.4133995        8.28856      lsim_flow
 lsim_flow_193        0.3839399        8.28856      lsim_flow
 lsim_flow_194        0.3889907        8.28856      lsim_flow
 lsim_flow_195        0.5107973        8.28856      lsim_flow
 lsim_flow_196        0.5642677        8.28856      lsim_flow
 lsim_flow_197        0.4365092        8.28856      lsim_flow
 lsim_flow_198        0.3939834        8.28856      lsim_flow
 lsim_flow_199        0.5609007        8.28856      lsim_flow
 lsim_flow_200        0.7250137        8.28856      lsim_flow
 lsim_flow_201        0.7250137        8.28856      lsim_flow
 lsim_flow_202        0.6655254        8.28856      lsim_flow
 lsim_flow_203        0.5774806        8.28856      lsim_flow
 lsim_flow_204        0.4874186        8.28856      lsim_flow
 lsim_flow_205        0.4227915        8.28856      lsim_flow
 lsim_flow_206        0.5107973        8.28856      lsim_flow
 lsim_flow_207        0.6148661        8.28856      lsim_flow
 lsim_flow_208        0.6266454        8.28856      lsim_flow
 lsim_flow_209        0.8508283        8.28856      lsim_flow
 lsim_flow_210        0.9672377        8.28856      lsim_flow
 lsim_flow_211         1.087012        8.28856      lsim_flow
 lsim_flow_212         1.157469        8.28856      lsim_flow
 lsim_flow_213         1.195935        8.28856      lsim_flow
 lsim_flow_214         1.264615        8.28856      lsim_flow
 lsim_flow_215         1.330271        8.28856      lsim_flow
 lsim_flow_216         1.370854        8.28856      lsim_flow
 lsim_flow_217         1.403133        8.28856      lsim_flow
 lsim_flow_218         1.437240        8.28856      lsim_flow
 lsim_flow_219         1.471778        8.28856      lsim_flow
 lsim_flow_220         1.499898        8.28856      lsim_flow
 lsim_flow_221         1.480000        8.28856      lsim_flow
 lsim_flow_222         1.356482        8.28856      lsim_flow
 lsim_flow_223         1.248956        8.28856      lsim_flow
 lsim_flow_224         1.131006        8.28856      lsim_flow
 lsim_flow_225         1.042537        8.28856      lsim_flow
 lsim_flow_226        0.9440869        8.28856      lsim_flow
 lsim_flow_227        0.8455955        8.28856      lsim_flow
 lsim_flow_228        0.7584399        8.28856      lsim_flow
 lsim_flow_229        0.6962873        8.28856      lsim_flow
 lsim_flow_230        0.6734226        8.28856      lsim_flow
 lsim_flow_231        0.7341819        8.28856      lsim_flow
 lsim_flow_232        0.7773265        8.28856      lsim_flow
 lsim_flow_233        0.9698818        8.28856      lsim_flow
 lsim_flow_234         1.188828        8.28856      lsim_flow
 lsim_flow_235         1.242672        8.28856      lsim_flow
 lsim_flow_236         1.228373        8.28856      lsim_flow
 lsim_flow_237         1.101853        8.28856      lsim_flow
 lsim_flow_238        0.9698818        8.28856      lsim_flow
 lsim_flow_239        0.9061058        8.28856      lsim_flow
 lsim_flow_240        0.8694933        8.28856      lsim_flow
 lsim_flow_241        0.8258503        8.28856      lsim_flow
 lsim_flow_242        0.8012952        8.28856      lsim_flow
 lsim_flow_243        0.7773265        8.28856      lsim_flow
 lsim_flow_244        0.7497748        8.28856      lsim_flow
 lsim_flow_245        0.7180083        8.28856      lsim_flow
 lsim_flow_246        0.6760234        8.28856      lsim_flow
 lsim_flow_247        0.6352748        8.28856      lsim_flow
 lsim_flow_248        0.5965755        8.28856      lsim_flow
 lsim_flow_249        0.5609007        8.28856      lsim_flow
 lsim_flow_250        0.5293619        8.28856      lsim_flow
 lsim_flow_251        0.4914035        8.28856      lsim_flow
 lsim_flow_252        0.4669265        8.28856      lsim_flow
 lsim_flow_253        0.4454194        8.28856      lsim_flow
 lsim_flow_254        0.4274124        8.28856      lsim_flow
 lsim_flow_255        0.4038000        8.28856      lsim_flow
 lsim_flow_256        0.3839399        8.28856      lsim_flow
 lsim_flow_257        0.3631279        8.28856      lsim_flow
 lsim_flow_258        0.3523355        8.28856      lsim_flow
 lsim_flow_259        0.3412681        8.28856      lsim_flow
 lsim_flow_260        0.3299113        8.28856      lsim_flow
 lsim_flow_261        0.3241195        8.28856      lsim_flow
 lsim_flow_262        0.3182495        8.28856      lsim_flow
 lsim_flow_263        0.3122990        8.28856      lsim_flow
 lsim_flow_264        0.3062659        8.28856      lsim_flow
 lsim_flow_265        0.3122990        8.28856      lsim_flow
 lsim_flow_266        0.3468371        8.28856      lsim_flow
 lsim_flow_267        0.3356268        8.28856      lsim_flow
 lsim_flow_268        0.3412681        8.28856      lsim_flow
 lsim_flow_269        0.3736585        8.28856      lsim_flow
 lsim_flow_270        0.7519573        8.28856      lsim_flow
 lsim_flow_271        0.7690337        8.28856      lsim_flow
 lsim_flow_272        0.7012089        8.28856      lsim_flow
 lsim_flow_273        0.6492869        8.28856      lsim_flow
 lsim_flow_274        0.5807220        8.28856      lsim_flow
 lsim_flow_275        0.5257120        8.28856      lsim_flow
 lsim_flow_276        0.5069872        8.28856      lsim_flow
 lsim_flow_277        0.7203560        8.28856      lsim_flow
 lsim_flow_278        0.9942302        8.28856      lsim_flow
 lsim_flow_279         1.049176        8.28856      lsim_flow
 lsim_flow_280        0.9751225        8.28856      lsim_flow
 lsim_flow_281        0.8809665        8.28856      lsim_flow
 lsim_flow_282        0.8455955        8.28856      lsim_flow
 lsim_flow_283        0.8089995        8.28856      lsim_flow
 lsim_flow_284        0.7519573        8.28856      lsim_flow
 lsim_flow_285        0.6887987        8.28856      lsim_flow
 lsim_flow_286        0.6295410        8.28856      lsim_flow
 lsim_flow_287        0.5839393        8.28856      lsim_flow
 lsim_flow_288        0.5540873        8.28856      lsim_flow
 lsim_flow_289        0.5506402        8.28856      lsim_flow
 lsim_flow_290        0.5401313        8.28856      lsim_flow
 lsim_flow_291        0.5401313        8.28856      lsim_flow
 lsim_flow_292        0.5401313        8.28856      lsim_flow
 lsim_flow_293        0.5293619        8.28856      lsim_flow
 lsim_flow_294        0.5506402        8.28856      lsim_flow
 lsim_flow_295        0.6118706        8.28856      lsim_flow
 lsim_flow_296        0.6437362        8.28856      lsim_flow
 lsim_flow_297        0.6628608        8.28856      lsim_flow
 lsim_flow_298        0.6601797        8.28856      lsim_flow
 lsim_flow_299        0.6437362        8.28856      lsim_flow
 lsim_flow_300        0.6295410        8.28856      lsim_flow
 lsim_flow_301        0.6118706        8.28856      lsim_flow
 lsim_flow_302        0.5807220        8.28856      lsim_flow
 lsim_flow_303        0.5540873        8.28856      lsim_flow
 lsim_flow_304        0.5436626        8.28856      lsim_flow
 lsim_flow_305        0.5436626        8.28856      lsim_flow
 lsim_flow_306        0.5436626        8.28856      lsim_flow
 lsim_flow_307        0.5471654        8.28856      lsim_flow
 lsim_flow_308        0.5934508        8.28856      lsim_flow
 lsim_flow_309        0.6352748        8.28856      lsim_flow
 lsim_flow_310        0.6938055        8.28856      lsim_flow
 lsim_flow_311        0.7874747        8.28856      lsim_flow
 lsim_flow_312        0.9091483        8.28856      lsim_flow
 lsim_flow_313        0.9619004        8.28856      lsim_flow
 lsim_flow_314        0.9313120        8.28856      lsim_flow
 lsim_flow_315        0.8644819        8.28856      lsim_flow
 lsim_flow_316        0.8032342        8.28856      lsim_flow
 lsim_flow_317        0.7874747        8.28856      lsim_flow
 lsim_flow_318        0.7497748        8.28856      lsim_flow
 lsim_flow_319        0.7226911        8.28856      lsim_flow
 lsim_flow_320        0.7012089        8.28856      lsim_flow
 lsim_flow_321        0.6837336        8.28856      lsim_flow
 lsim_flow_322        0.6734226        8.28856      lsim_flow
 lsim_flow_323        0.6628608        8.28856      lsim_flow
 lsim_flow_324        0.6547675        8.28856      lsim_flow
 lsim_flow_325        0.6492869        8.28856      lsim_flow
 lsim_flow_326        0.6655254        8.28856      lsim_flow
 lsim_flow_327        0.7431605        8.28856      lsim_flow
 lsim_flow_328        0.7954259        8.28856      lsim_flow
 lsim_flow_329        0.8952860        8.28856      lsim_flow
 lsim_flow_330        0.9904754        8.28856      lsim_flow
 lsim_flow_331         1.050273        8.28856      lsim_flow
 lsim_flow_332         1.065343        8.28856      lsim_flow
 lsim_flow_333         1.042537        8.28856      lsim_flow
 lsim_flow_334         1.108609        8.28856      lsim_flow
 lsim_flow_335         1.357023        8.28856      lsim_flow
 lsim_flow_336         1.410841        8.28856      lsim_flow
 lsim_flow_337         1.440820        8.28856      lsim_flow
 lsim_flow_338         1.454853        8.28856      lsim_flow
 lsim_flow_339         1.467608        8.28856      lsim_flow
 lsim_flow_340         1.471778        8.28856      lsim_flow
 lsim_flow_341         1.450516        8.28856      lsim_flow
 lsim_flow_342         1.352131        8.28856      lsim_flow
 lsim_flow_343         1.246872        8.28856      lsim_flow
 lsim_flow_344         1.177537        8.28856      lsim_flow
 lsim_flow_345         1.103794        8.28856      lsim_flow
 lsim_flow_346         1.057873        8.28856      lsim_flow
 lsim_flow_347         1.079908        8.28856      lsim_flow
 lsim_flow_348         1.165944        8.28856      lsim_flow
 lsim_flow_349         1.223254        8.28856      lsim_flow
 lsim_flow_350         1.258554        8.28856      lsim_flow
 lsim_flow_351         1.279728        8.28856      lsim_flow
 lsim_flow_352         1.300533        8.28856      lsim_flow
 lsim_flow_353         1.298064        8.28856      lsim_flow
 lsim_flow_354         1.260584        8.28856      lsim_flow
 lsim_flow_355         1.201384        8.28856      lsim_flow
 lsim_flow_356         1.140007        8.28856      lsim_flow
 lsim_flow_357         1.080930        8.28856      lsim_flow
 lsim_flow_358         1.042537        8.28856      lsim_flow
 lsim_flow_359         1.019643        8.28856      lsim_flow
 lsim_flow_360        0.9991868        8.28856      lsim_flow
 lsim_flow_361        0.9815856        8.28856      lsim_flow
 lsim_flow_362        0.9711980        8.28856      lsim_flow
 lsim_flow_363        0.9645772        8.28856      lsim_flow
 lsim_flow_364        0.9454834        8.28856      lsim_flow
 lsim_flow_365        0.9269689        8.28856      lsim_flow
 lsim_flow_366        0.9211096        8.28856      lsim_flow
 bsim_flow_1          0.2205172       0.678407      bsim_flow
 bsim_flow_2          0.4319820       0.678407      bsim_flow
 bsim_flow_3          0.6431160       0.678407      bsim_flow
 bsim_flow_4          0.9371071       0.678407      bsim_flow
 bsim_flow_5           1.427984       0.678407      bsim_flow
 bsim_flow_6           2.075428       0.678407      bsim_flow
 bsim_flow_7           2.795176       0.678407      bsim_flow
 bsim_flow_8           3.571260       0.678407      bsim_flow
 bsim_flow_9           4.398735       0.678407      bsim_flow
 bsim_flow_10          5.283394       0.678407      bsim_flow
 bsim_flow_11          6.199032       0.678407      bsim_flow
 bsim_flow_12          7.070541       0.678407      bsim_flow
 bsim_flow_13          7.821154       0.678407      bsim_flow
 bsim_flow_14          8.422035       0.678407      bsim_flow
 bsim_flow_15          8.886133       0.678407      bsim_flow
 bsim_flow_16          9.241997       0.678407      bsim_flow
 bsim_flow_17          9.522420       0.678407      bsim_flow
 bsim_flow_18          9.768578       0.678407      bsim_flow
 bsim_flow_19          10.01141       0.678407      bsim_flow
 bsim_flow_20          10.25950       0.678407      bsim_flow
 bsim_flow_21          10.50989       0.678407      bsim_flow
 bsim_flow_22          10.75543       0.678407      bsim_flow
 bsim_flow_23          10.98209       0.678407      bsim_flow
 bsim_flow_24          11.17405       0.678407      bsim_flow
 bsim_flow_25          11.32583       0.678407      bsim_flow
 bsim_flow_26          11.44584       0.678407      bsim_flow
 bsim_flow_27          11.54622       0.678407      bsim_flow
 bsim_flow_28          11.63595       0.678407      bsim_flow
 bsim_flow_29          11.72485       0.678407      bsim_flow
 bsim_flow_30          11.81896       0.678407      bsim_flow
 bsim_flow_31          11.93019       0.678407      bsim_flow
 bsim_flow_32          12.12288       0.678407      bsim_flow
 bsim_flow_33          12.44879       0.678407      bsim_flow
 bsim_flow_34          12.89363       0.678407      bsim_flow
 bsim_flow_35          13.46681       0.678407      bsim_flow
 bsim_flow_36          14.18494       0.678407      bsim_flow
 bsim_flow_37          15.09042       0.678407      bsim_flow
 bsim_flow_38          16.22811       0.678407      bsim_flow
 bsim_flow_39          17.57805       0.678407      bsim_flow
 bsim_flow_40          19.04998       0.678407      bsim_flow
 bsim_flow_41          20.50990       0.678407      bsim_flow
 bsim_flow_42          21.86960       0.678407      bsim_flow
 bsim_flow_43          23.17762       0.678407      bsim_flow
 bsim_flow_44          24.46709       0.678407      bsim_flow
 bsim_flow_45          25.65353       0.678407      bsim_flow
 bsim_flow_46          26.70058       0.678407      bsim_flow
 bsim_flow_47          27.63651       0.678407      bsim_flow
 bsim_flow_48          28.52780       0.678407      bsim_flow
 bsim_flow_49          29.43574       0.678407      bsim_flow
 bsim_flow_50          30.35284       0.678407      bsim_flow
 bsim_flow_51          31.22578       0.678407      bsim_flow
 bsim_flow_52          31.98840       0.678407      bsim_flow
 bsim_flow_53          32.57622       0.678407      bsim_flow
 bsim_flow_54          32.95820       0.678407      bsim_flow
 bsim_flow_55          33.15365       0.678407      bsim_flow
 bsim_flow_56          33.21679       0.678407      bsim_flow
 bsim_flow_57          30.86536       0.678407      bsim_flow
 bsim_flow_58          28.88318       0.678407      bsim_flow
 bsim_flow_59          27.66556       0.678407      bsim_flow
 bsim_flow_60          27.15586       0.678407      bsim_flow
 bsim_flow_61          28.00536       0.678407      bsim_flow
 bsim_flow_62          28.88318       0.678407      bsim_flow
 bsim_flow_63          29.44952       0.678407      bsim_flow
 bsim_flow_64          29.16635       0.678407      bsim_flow
 bsim_flow_65          27.83546       0.678407      bsim_flow
 bsim_flow_66          25.57011       0.678407      bsim_flow
 bsim_flow_67          23.19150       0.678407      bsim_flow
 bsim_flow_68          21.46417       0.678407      bsim_flow
 bsim_flow_69          19.99169       0.678407      bsim_flow
 bsim_flow_70          18.63248       0.678407      bsim_flow
 bsim_flow_71          17.64140       0.678407      bsim_flow