pcf
* control data
restart regularisation
   3534  13001      6    5340     10
    5     2 single point   1   0   0
  5.0  -3.0   0.3  0.03    10
  3.0   3.0 0.001  0
  0.1
   40  0.01     3     3  0.01     3
    1     1     1
* singular value decomposition
         1
      4123     1E-08
         0
* parameter groups
HK     relative 0.01  0.0  switch  2.0 parabolic
ANIZ   relative 0.01  0.0  switch  2.0 parabolic
HTR    relative 0.01  0.0  switch  2.0 parabolic
HT_Rat relative 0.01  0.0  switch  2.0 parabolic
ALFA   relative 0.01  0.0  switch  2.0 parabolic
THET   relative 0.01  0.0  switch  2.0 parabolic
* parameter data
hk_001          fixed  factor              999999  0.0000000E+00       99999999     HK      1.0000      0.0000   1
hk_002          fixed  factor              999999  0.0000000E+00       99999999     HK      1.0000      0.0000   1
hk_003          fixed  factor              999999  0.0000000E+00       99999999     HK      1.0000      0.0000   1
hk_004          fixed  factor              999999  0.0000000E+00       99999999     HK      1.0000      0.0000   1
hk_005          fixed  factor              999999  0.0000000E+00       99999999     HK      1.0000      0.0000   1
hk_006          fixed  factor              999999  0.0000000E+00       99999999     HK      1.0000      0.0000   1
hk_007          fixed  factor              999999  0.0000000E+00       99999999     HK      1.0000      0.0000   1
hk_008          fixed  factor              999999  0.0000000E+00       99999999     HK      1.0000      0.0000   1
hk_009          fixed  factor              999999  0.0000000E+00       99999999     HK      1.0000      0.0000   1
hk_010          fixed  factor              999999  0.0000000E+00       99999999     HK      1.0000      0.0000   1
hk_011          fixed  factor              999999  0.0000000E+00       99999999     HK      1.0000      0.0000   1
hk_012          fixed  factor              999999  0.0000000E+00       99999999     HK      1.0000      0.0000   1
hk_013          fixed  factor              999999  0.0000000E+00       99999999     HK      1.0000      0.0000   1
hk_014          fixed  factor              999999  0.0000000E+00       99999999     HK      1.0000      0.0000   1
hk_015          fixed  factor              999999  0.0000000E+00       99999999     HK      1.0000      0.0000   1
hk_016          fixed  factor              999999  0.0000000E+00       99999999     HK      1.0000      0.0000   1
hk_017          fixed  factor              999999  0.0000000E+00       99999999     HK      1.0000      0.0000   1
hk_018            log  factor        1.500000E-02  1.0000000E-05  2.0100000E+01     HK      1.0000      0.0000   1
hk_019          fixed  factor              999999  0.0000000E+00       99999999     HK      1.0000      0.0000   1
hk_020            log  factor        2.200000E-02  1.0000000E-05  2.0100000E+01     HK      1.0000      0.0000   1
hk_021            log  factor        2.200000E-02  1.0000000E-05  2.0100000E+01     HK      1.0000      0.0000   1
hk_022            log  factor        2.200000E-02  1.0000000E-05  2.0100000E+01     HK      1.0000      0.0000   1
hk_023          fixed  factor              999999  0.0000000E+00       99999999     HK      1.0000      0.0000   1
hk_024          fixed  factor              999999  0.0000000E+00       99999999     HK      1.0000      0.0000   1
hk_025          fixed  factor              999999  0.0000000E+00       99999999     HK      1.0000      0.0000   1
hk_026          fixed  factor              999999  0.0000000E+00       99999999     HK      1.0000      0.0000   1
hk_027          fixed  factor              999999  0.0000000E+00       99999999     HK      1.0000      0.0000   1
hk_028          fixed  factor              999999  0.0000000E+00       99999999     HK      1.0000      0.0000   1
hk_029          fixed  factor              999999  0.0000000E+00       99999999     HK      1.0000      0.0000   1
hk_030          fixed  factor              999999  0.0000000E+00       99999999     HK      1.0000      0.0000   1
hk_031          fixed  factor              999999  0.0000000E+00       99999999     HK      1.0000      0.0000   1
hk_032          fixed  factor              999999  0.0000000E+00       99999999     HK      1.0000      0.0000   1
hk_033          fixed  factor              999999  0.0000000E+00       99999999     HK      1.0000      0.0000   1
hk_034          fixed  factor              999999  0.0000000E+00       99999999     HK      1.0000      0.0000   1
hk_035          fixed  factor              999999  0.0000000E+00       99999999     HK      1.0000      0.0000   1
hk_036          fixed  factor              999999  0.0000000E+00       99999999     HK      1.0000      0.0000   1
hk_037            log  factor        1.500000E-02  1.0000000E-05  2.0100000E+01     HK      1.0000      0.0000   1
hk_038            log  factor        1.500000E-02  1.0000000E-05  2.0100000E+01     HK      1.0000      0.0000   1
hk_039            log  factor        2.200000E-02  1.0000000E-05  2.0100000E+01     HK      1.0000      0.0000   1
hk_040            log  factor        2.200000E-02  1.0000000E-05  2.0100000E+01     HK      1.0000      0.0000   1
hk_041            log  factor        2.200000E-02  1.0000000E-05  2.0100000E+01     HK      1.0000      0.0000   1
hk_042            log  factor        2.200000E-02  1.0000000E-05  2.0100000E+01     HK      1.0000      0.0000   1
hk_043          fixed  factor              999999  0.0000000E+00       99999999     HK      1.0000      0.0000   1
hk_044          fixed  factor              999999  0.0000000E+00       99999999     HK      1.0000      0.0000   1
hk_045          fixed  factor              999999  0.0000000E+00       99999999     HK      1.0000      0.0000   1
hk_046          fixed  factor              999999  0.0000000E+00       99999999     HK      1.0000      0.0000   1
hk_047          fixed  factor              999999  0.0000000E+00       99999999     HK      1.0000      0.0000   1
hk_048          fixed  factor              999999  0.0000000E+00       99999999     HK      1.0000      0.0000   1
hk_049          fixed  factor              999999  0.0000000E+00       99999999     HK      1.0000      0.0000   1
hk_050          fixed  factor              999999  0.0000000E+00       99999999     HK      1.0000      0.0000   1
hk_051          fixed  factor              999999  0.0000000E+00       99999999     HK      1.0000      0.0000   1
hk_052          fixed  factor              999999  0.0000000E+00       99999999     HK      1.0000      0.0000   1
hk_053          fixed  factor              999999  0.0000000E+00       99999999     HK      1.0000      0.0000   1
hk_054          fixed  factor              999999  0.0000000E+00       99999999     HK      1.0000      0.0000   1
hk_055            log  factor        1.500000E-02  1.0000000E-05  2.0100000E+01     HK      1.0000      0.0000   1
hk_056            log  factor        1.500000E-02  1.0000000E-05  2.0100000E+01     HK      1.0000      0.0000   1
hk_057            log  factor        1.500000E-02  1.0000000E-05  2.0100000E+01     HK      1.0000      0.0000   1
hk_058            log  factor        2.200000E-02  1.0000000E-05  2.0100000E+01     HK      1.0000      0.0000   1
hk_059            log  factor        2.200000E-02  1.0000000E-05  2.0100000E+01     HK      1.0000      0.0000   1
hk_060            log  factor        2.200000E-02  1.0000000E-05  2.0100000E+01     HK      1.0000      0.0000   1
hk_061            log  factor        2.200000E-02  1.0000000E-05  2.0100000E+01     HK      1.0000      0.0000   1
hk_062            log  factor        2.200000E-02  1.0000000E-05  2.0100000E+01     HK      1.0000      0.0000   1
hk_063          fixed  factor              999999  0.0000000E+00       99999999     HK      1.0000      0.0000   1
hk_064          fixed  factor              999999  0.0000000E+00       99999999     HK      1.0000      0.0000   1
hk_065          fixed  factor              999999  0.0000000E+00       99999999     HK      1.0000      0.0000   1
hk_066          fixed  factor              999999  0.0000000E+00       99999999     HK      1.0000      0.0000   1
hk_067          fixed  factor              999999  0.0000000E+00       99999999     HK      1.0000      0.0000   1
hk_068          fixed  factor              999999  0.0000000E+00       99999999     HK      1.0000      0.0000   1
hk_069          fixed  factor              999999  0.0000000E+00       99999999     HK      1.0000      0.0000   1
hk_070          fixed  factor              999999  0.0000000E+00       99999999     HK      1.0000      0.0000   1
hk_071          fixed  factor              999999  0.0000000E+00       99999999     HK      1.0000      0.0000   1
hk_072          fixed  factor              999999  0.0000000E+00       99999999     HK      1.0000      0.0000   1
hk_073          fixed  factor              999999  0.0000000E+00       99999999     HK      1.0000      0.0000   1
hk_074            log  factor        1.500000E-02  1.0000000E-05  2.0100000E+01     HK      1.0000      0.0000   1
hk_075            log  factor        1.500000E-02  1.0000000E-05  2.0100000E+01     HK      1.0000      0.0000   1
hk_076            log  factor        1.500000E-02  1.0000000E-05  2.0100000E+01     HK      1.0000      0.0000   1
hk_077            log  factor        2.200000E-02  1.0000000E-05  2.0100000E+01     HK      1.0000      0.0000   1
hk_078            log  factor        2.200000E-02  1.0000000E-05  2.0100000E+01     HK      1.0000      0.0000   1
hk_079            log  factor        2.200000E-02  1.0000000E-05  2.0100000E+01     HK      1.0000      0.0000   1
hk_080            log  factor        2.200000E-02  1.0000000E-05  2.0100000E+01     HK      1.0000      0.0000   1
hk_081            log  factor        2.200000E-02  1.0000000E-05  2.0100000E+01     HK      1.0000      0.0000   1
hk_082          fixed  factor              999999  0.0000000E+00       99999999     HK      1.0000      0.0000   1
hk_083          fixed  factor              999999  0.0000000E+00       99999999     HK      1.0000      0.0000   1
hk_084          fixed  factor              999999  0.0000000E+00       99999999     HK      1.0000      0.0000   1
hk_085          fixed  factor              999999  0.0000000E+00       99999999     HK      1.0000      0.0000   1
hk_086          fixed  factor              999999  0.0000000E+00       99999999     HK      1.0000      0.0000   1
hk_087          fixed  factor              999999  0.0000000E+00       99999999     HK      1.0000      0.0000   1
hk_088          fixed  factor              999999  0.0000000E+00       99999999     HK      1.0000      0.0000   1
hk_089          fixed  factor              999999  0.0000000E+00       99999999     HK      1.0000      0.0000   1
hk_090          fixed  factor              999999  0.0000000E+00       99999999     HK      1.0000      0.0000   1
hk_091          fixed  factor              999999  0.0000000E+00       99999999     HK      1.0000      0.0000   1
hk_092          fixed  factor              999999  0.0000000E+00       99999999     HK      1.0000      0.0000   1
hk_093            log  factor        1.500000E-02  1.0000000E-05  2.0100000E+01     HK      1.0000      0.0000   1
hk_094            log  factor        1.500000E-02  1.0000000E-05  2.0100000E+01     HK      1.0000      0.0000   1
hk_095            log  factor        1.500000E-02  1.0000000E-05  2.0100000E+01     HK      1.0000      0.0000   1
hk_096            log  factor        2.200000E-02  1.0000000E-05  2.0100000E+01     HK      1.0000      0.0000   1
hk_097            log  factor        2.200000E-02  1.0000000E-05  2.0100000E+01     HK      1.0000      0.0000   1
hk_098            log  factor        2.200000E-02  1.0000000E-05  2.0100000E+01     HK      1.0000      0.0000   1
hk_099            log  factor        2.200000E-02  1.0000000E-05  2.0100000E+01     HK      1.0000      0.0000   1
hk_100            log  factor        2.200000E-02  1.0000000E-05  2.0100000E+01     HK      1.0000      0.0000   1
hk_101          fixed  factor              999999  0.0000000E+00       99999999     HK      1.0000      0.0000   1
hk_102          fixed  factor              999999  0.0000000E+00       99999999     HK      1.0000      0.0000   1
hk_103          fixed  factor              999999  0.0000000E+00       99999999     HK      1.0000      0.0000   1
hk_104          fixed  factor              999999  0.0000000E+00       99999999     HK      1.0000      0.0000   1
hk_105          fixed  factor              999999  0.0000000E+00       99999999     HK      1.0000      0.0000   1
hk_106          fixed  factor              999999  0.0000000E+00       99999999     HK      1.0000      0.0000   1
hk_107          fixed  factor              999999  0.0000000E+00       99999999     HK      1.0000      0.0000   1
hk_108          fixed  factor              999999  0.0000000E+00       99999999     HK      1.0000      0.0000   1
hk_109          fixed  factor              999999  0.0000000E+00       99999999     HK      1.0000      0.0000   1
hk_110          fixed  factor              999999  0.0000000E+00       99999999     HK      1.0000      0.0000   1
hk_111            log  factor        3.900000E-02  1.0000000E-05  2.0100000E+01     HK      1.0000      0.0000   1
hk_112            log  factor        1.500000E-02  1.0000000E-05  2.0100000E+01     HK      1.0000      0.0000   1
hk_113            log  factor        1.500000E-02  1.0000000E-05  2.0100000E+01     HK      1.0000      0.0000   1
hk_114            log  factor        1.500000E-02  1.0000000E-05  2.0100000E+01     HK      1.0000      0.0000   1
hk_115            log  factor        2.200000E-02  1.0000000E-05  2.0100000E+01     HK      1.0000      0.0000   1
hk_116            log  factor        2.200000E-02  1.0000000E-05  2.0100000E+01     HK      1.0000      0.0000   1
hk_117            log  factor        2.200000E-02  1.0000000E-05  2.0100000E+01     HK      1.0000      0.0000   1
hk_118            log  factor        2.200000E-02  1.0000000E-05  2.0100000E+01     HK      1.0000      0.0000   1
hk_119            log  factor        2.200000E-02  1.0000000E-05  2.0100000E+01     HK      1.0000      0.0000   1
hk_120            log  factor        2.200000E-02  1.0000000E-05  2.0100000E+01     HK      1.0000      0.0000   1
hk_121          fixed  factor              999999  0.0000000E+00       99999999     HK      1.0000      0.0000   1
hk_122          fixed  factor              999999  0.0000000E+00       99999999     HK      1.0000      0.0000   1
hk_123          fixed  factor              999999  0.0000000E+00       99999999     HK      1.0000      0.0000   1
hk_124          fixed  factor              999999  0.0000000E+00       99999999     HK      1.0000      0.0000   1
hk_125          fixed  factor              999999  0.0000000E+00       99999999     HK      1.0000      0.0000   1
hk_126          fixed  factor              999999  0.0000000E+00       99999999     HK      1.0000      0.0000   1
hk_127          fixed  factor              999999  0.0000000E+00       99999999     HK      1.0000      0.0000   1
hk_128          fixed  factor              999999  0.0000000E+00       99999999     HK      1.0000      0.0000   1
hk_129          fixed  factor              999999  0.0000000E+00       99999999     HK      1.0000      0.0000   1
hk_130            log  factor        1.500000E-02  1.0000000E-05  2.0100000E+01     HK      1.0000      0.0000   1
hk_131            log  factor        1.500000E-02  1.0000000E-05  2.0100000E+01     HK      1.0000      0.0000   1
hk_132            log  factor        1.500000E-02  1.0000000E-05  2.0100000E+01     HK      1.0000      0.0000   1
hk_133            log  factor        1.500000E-02  1.0000000E-05  2.0100000E+01     HK      1.0000      0.0000   1
hk_134            log  factor        2.200000E-02  1.0000000E-05  2.0100000E+01     HK      1.0000      0.0000   1
hk_135            log  factor        2.200000E-02  1.0000000E-05  2.0100000E+01     HK      1.0000      0.0000   1
hk_136            log  factor        2.200000E-02  1.0000000E-05  2.0100000E+01     HK      1.0000      0.0000   1
hk_137            log  factor        2.200000E-02  1.0000000E-05  2.0100000E+01     HK      1.0000      0.0000   1
hk_138            log  factor        2.200000E-02  1.0000000E-05  2.0100000E+01     HK      1.0000      0.0000   1
hk_139            log  factor        2.200000E-02  1.0000000E-05  2.0100000E+01     HK      1.0000      0.0000   1
hk_140          fixed  factor              999999  0.0000000E+00       99999999     HK      1.0000      0.0000   1
hk_141          fixed  factor              999999  0.0000000E+00       99999999     HK      1.0000      0.0000   1
hk_142          fixed  factor              999999  0.0000000E+00       99999999     HK      1.0000      0.0000   1
hk_143          fixed  factor              999999  0.0000000E+00       99999999     HK      1.0000      0.0000   1
hk_144          fixed  factor              999999  0.0000000E+00       99999999     HK      1.0000      0.0000   1
hk_145          fixed  factor              999999  0.0000000E+00       99999999     HK      1.0000      0.0000   1
hk_146          fixed  factor              999999  0.0000000E+00       99999999     HK      1.0000      0.0000   1
hk_147          fixed  factor              999999  0.0000000E+00       99999999     HK      1.0000      0.0000   1
hk_148            log  factor        3.900000E-02  1.0000000E-05  2.0100000E+01     HK      1.0000      0.0000   1
hk_149            log  factor        1.500000E-02  1.0000000E-05  2.0100000E+01     HK      1.0000      0.0000   1
hk_150            log  factor        1.500000E-02  1.0000000E-05  2.0100000E+01     HK      1.0000      0.0000   1
hk_151            log  factor        1.500000E-02  1.0000000E-05  2.0100000E+01     HK      1.0000      0.0000   1
hk_152            log  factor        1.500000E-02  1.0000000E-05  2.0100000E+01     HK      1.0000      0.0000   1
hk_153            log  factor        2.200000E-02  1.0000000E-05  2.0100000E+01     HK      1.0000      0.0000   1
hk_154            log  factor        2.200000E-02  1.0000000E-05  2.0100000E+01     HK      1.0000      0.0000   1
hk_155            log  factor        2.200000E-02  1.0000000E-05  2.0100000E+01     HK      1.0000      0.0000   1
hk_156            log  factor        2.200000E-02  1.0000000E-05  2.0100000E+01     HK      1.0000      0.0000   1
hk_157            log  factor        2.200000E-02  1.0000000E-05  2.0100000E+01     HK      1.0000      0.0000   1
hk_158            log  factor        2.200000E-02  1.0000000E-05  2.0100000E+01     HK      1.0000      0.0000   1
hk_159            log  factor        2.200000E-02  1.0000000E-05  2.0100000E+01     HK      1.0000      0.0000   1
hk_160          fixed  factor              999999  0.0000000E+00       99999999     HK      1.0000      0.0000   1
hk_161          fixed  factor              999999  0.0000000E+00       99999999     HK      1.0000      0.0000   1
hk_162          fixed  factor              999999  0.0000000E+00       99999999     HK      1.0000      0.0000   1
hk_163          fixed  factor              999999  0.0000000E+00       99999999     HK      1.0000      0.0000   1
hk_164          fixed  factor              999999  0.0000000E+00       99999999     HK      1.0000      0.0000   1
hk_165          fixed  factor              999999  0.0000000E+00       99999999     HK      1.0000      0.0000   1
hk_166          fixed  factor              999999  0.0000000E+00       99999999     HK      1.0000      0.0000   1
hk_167            log  factor        3.900000E-02  1.0000000E-05  2.0100000E+01     HK      1.0000      0.0000   1
hk_168            log  factor        1.500000E-02  1.0000000E-05  2.0100000E+01     HK      1.0000      0.0000   1
hk_169            log  factor        1.500000E-02  1.0000000E-05  2.0100000E+01     HK      1.0000      0.0000   1
hk_170            log  factor        1.500000E-02  1.0000000E-05  2.0100000E+01     HK      1.0000      0.0000   1
hk_171            log  factor        1.500000E-02  1.0000000E-05  2.0100000E+01     HK      1.0000      0.0000   1
hk_172            log  factor        2.200000E-02  1.0000000E-05  2.0100000E+01     HK      1.0000      0.0000   1
hk_173            log  factor        2.200000E-02  1.0000000E-05  2.0100000E+01     HK      1.0000      0.0000   1
hk_174            log  factor        2.200000E-02  1.0000000E-05  2.0100000E+01     HK      1.0000      0.0000   1
hk_175            log  factor        2.200000E-02  1.0000000E-05  2.0100000E+01     HK      1.0000      0.0000   1
hk_176            log  factor        2.200000E-02  1.0000000E-05  2.0100000E+01     HK      1.0000      0.0000   1
hk_177            log  factor        2.200000E-02  1.0000000E-05  2.0100000E+01     HK      1.0000      0.0000   1
hk_178            log  factor        2.200000E-02  1.0000000E-05  2.0100000E+01     HK      1.0000      0.0000   1
hk_179          fixed  factor              999999  0.0000000E+00       99999999     HK      1.0000      0.0000   1
hk_180          fixed  factor              999999  0.0000000E+00       99999999     HK      1.0000      0.0000   1
hk_181          fixed  factor              999999  0.0000000E+00       99999999     HK      1.0000      0.0000   1
hk_182          fixed  factor              999999  0.0000000E+00       99999999     HK      1.0000      0.0000   1
hk_183          fixed  factor              999999  0.0000000E+00       99999999     HK      1.0000      0.0000   1
hk_184          fixed  factor              999999  0.0000000E+00       99999999     HK      1.0000      0.0000   1
hk_185          fixed  factor              999999  0.0000000E+00       99999999     HK      1.0000      0.0000   1
hk_186            log  factor        3.900000E-02  1.0000000E-05  2.0100000E+01     HK      1.0000      0.0000   1
hk_187            log  factor        1.500000E-02  1.0000000E-05  2.0100000E+01     HK      1.0000      0.0000   1
hk_188            log  factor        1.500000E-02  1.0000000E-05  2.0100000E+01     HK      1.0000      0.0000   1
hk_189            log  factor        1.500000E-02  1.0000000E-05  2.0100000E+01     HK      1.0000      0.0000   1
hk_190            log  factor        1.500000E-02  1.0000000E-05  2.0100000E+01     HK      1.0000      0.0000   1
hk_191            log  factor        2.200000E-02  1.0000000E-05  2.0100000E+01     HK      1.0000      0.0000   1
hk_192            log  factor        2.200000E-02  1.0000000E-05  2.0100000E+01     HK      1.0000      0.0000   1
hk_193            log  factor        2.200000E-02  1.0000000E-05  2.0100000E+01     HK      1.0000      0.0000   1
hk_194            log  factor        2.200000E-02  1.0000000E-05  2.0100000E+01     HK      1.0000      0.0000   1
hk_195            log  factor        2.200000E-02  1.0000000E-05  2.0100000E+01     HK      1.0000      0.0000   1
hk_196            log  factor        2.200000E-02  1.0000000E-05  2.0100000E+01     HK      1.0000      0.0000   1
hk_197            log  factor        2.200000E-02  1.0000000E-05  2.0100000E+01     HK      1.0000      0.0000   1
hk_198            log  factor        8.000000E-03  1.0000000E-05  2.0100000E+01     HK      1.0000      0.0000   1
hk_199          fixed  factor              999999  0.0000000E+00       99999999     HK      1.0000      0.0000   1
hk_200          fixed  factor              999999  0.0000000E+00       99999999     HK      1.0000      0.0000   1
hk_201          fixed  factor              999999  0.0000000E+00       99999999     HK      1.0000      0.0000   1
hk_202          fixed  factor              999999  0.0000000E+00       99999999     HK      1.0000      0.0000   1
hk_203          fixed  factor              999999  0.0000000E+00       99999999     HK      1.0000      0.0000   1
hk_204          fixed  factor              999999  0.0000000E+00       99999999     HK      1.0000      0.0000   1
hk_205            log  factor        3.900000E-02  1.0000000E-05  2.0100000E+01     HK      1.0000      0.0000   1
hk_206            log  factor        1.500000E-02  1.0000000E-05  2.0100000E+01     HK      1.0000      0.0000   1
hk_207            log  factor        1.500000E-02  1.0000000E-05  2.0100000E+01     HK      1.0000      0.0000   1
hk_208            log  factor        1.500000E-02  1.0000000E-05  2.0100000E+01     HK      1.0000      0.0000   1
hk_209            log  factor        1.500000E-02  1.0000000E-05  2.0100000E+01     HK      1.0000      0.0000   1
hk_210            log  factor        2.200000E-02  1.0000000E-05  2.0100000E+01     HK      1.0000      0.0000   1
hk_211            log  factor        2.200000E-02  1.0000000E-05  2.0100000E+01     HK      1.0000      0.0000   1
hk_212            log  factor        2.200000E-02  1.0000000E-05  2.0100000E+01     HK      1.0000      0.0000   1
hk_213            log  factor        2.200000E-02  1.0000000E-05  2.0100000E+01     HK      1.0000      0.0000   1
hk_214            log  factor        2.200000E-02  1.0000000E-05  2.0100000E+01     HK      1.0000      0.0000   1
hk_215            log  factor        2.200000E-02  1.0000000E-05  2.0100000E+01     HK      1.0000      0.0000   1
hk_216            log  factor        2.200000E-02  1.0000000E-05  2.0100000E+01     HK      1.0000      0.0000   1
hk_217            log  factor        8.000000E-03  1.0000000E-05  2.0100000E+01     HK      1.0000      0.0000   1
hk_218            log  factor        8.000000E-03  1.0000000E-05  2.0100000E+01     HK      1.0000      0.0000   1
hk_219          fixed  factor              999999  0.0000000E+00       99999999     HK      1.0000      0.0000   1
hk_220          fixed  factor              999999  0.0000000E+00       99999999     HK      1.0000      0.0000   1
hk_221          fixed  factor              999999  0.0000000E+00       99999999     HK      1.0000      0.0000   1
hk_222          fixed  factor              999999  0.0000000E+00       99999999     HK      1.0000      0.0000   1
hk_223            log  factor        3.900000E-02  1.0000000E-05  2.0100000E+01     HK      1.0000      0.0000   1
hk_224            log  factor        3.900000E-02  1.0000000E-05  2.0100000E+01     HK      1.0000      0.0000   1
hk_225            log  factor        1.500000E-02  1.0000000E-05  2.0100000E+01     HK      1.0000      0.0000   1
hk_226            log  factor        1.500000E-02  1.0000000E-05  2.0100000E+01     HK      1.0000      0.0000   1
hk_227            log  factor        1.500000E-02  1.0000000E-05  2.0100000E+01     HK      1.0000      0.0000   1
hk_228            log  factor        1.500000E-02  1.0000000E-05  2.0100000E+01     HK      1.0000      0.0000   1
hk_229            log  factor        2.200000E-02  1.0000000E-05  2.0100000E+01     HK      1.0000      0.0000   1
hk_230            log  factor        2.200000E-02  1.0000000E-05  2.0100000E+01     HK      1.0000      0.0000   1
hk_231            log  factor        2.200000E-02  1.0000000E-05  2.0100000E+01     HK      1.0000      0.0000   1
hk_232            log  factor        2.200000E-02  1.0000000E-05  2.0100000E+01     HK      1.0000      0.0000   1
hk_233            log  factor        2.200000E-02  1.0000000E-05  2.0100000E+01     HK      1.0000      0.0000   1
hk_234            log  factor        2.200000E-02  1.0000000E-05  2.0100000E+01     HK      1.0000      0.0000   1
hk_235            log  factor        2.200000E-02  1.0000000E-05  2.0100000E+01     HK      1.0000      0.0000   1
hk_236            log  factor        8.000000E-03  1.0000000E-05  2.0100000E+01     HK      1.0000      0.0000   1
hk_237            log  factor        8.000000E-03  1.0000000E-05  2.0100000E+01     HK      1.0000      0.0000   1
hk_238            log  factor        8.000000E-03  1.0000000E-05  2.0100000E+01     HK      1.0000      0.0000   1
hk_239          fixed  factor              999999  0.0000000E+00       99999999     HK      1.0000      0.0000   1
hk_240          fixed  factor              999999  0.0000000E+00       99999999     HK      1.0000      0.0000   1
hk_241          fixed  factor              999999  0.0000000E+00       99999999     HK      1.0000      0.0000   1
hk_242            log  factor        3.900000E-02  1.0000000E-05  2.0100000E+01     HK      1.0000      0.0000   1
hk_243            log  factor        3.900000E-02  1.0000000E-05  2.0100000E+01     HK      1.0000      0.0000   1
hk_244            log  factor        1.500000E-02  1.0000000E-05  2.0100000E+01     HK      1.0000      0.0000   1
hk_245            log  factor        1.500000E-02  1.0000000E-05  2.0100000E+01     HK      1.0000      0.0000   1
hk_246            log  factor        1.500000E-02  1.0000000E-05  2.0100000E+01     HK      1.0000      0.0000   1
hk_247            log  factor        1.500000E-02  1.0000000E-05  2.0100000E+01     HK      1.0000      0.0000   1
hk_248            log  factor        2.200000E-02  1.0000000E-05  2.0100000E+01     HK      1.0000      0.0000   1
hk_249            log  factor        2.200000E-02  1.0000000E-05  2.0100000E+01     HK      1.0000      0.0000   1
hk_250            log  factor        2.200000E-02  1.0000000E-05  2.0100000E+01     HK      1.0000      0.0000   1
hk_251            log  factor        2.200000E-02  1.0000000E-05  2.0100000E+01     HK      1.0000      0.0000   1
hk_252            log  factor        2.200000E-02  1.0000000E-05  2.0100000E+01     HK      1.0000      0.0000   1