pcf
* control data
 restart regularisation
      41      11       1     35       3
            2            2       double        point            1            0            0
   0       2.0000      0.30000      3.00000E-02           1
   5.0000       5.0000      1.00000E-03
  0.10000      noaui
            50  1.00000E-03            4            4  1.00000E-03            4
            1            1            1
* parameter groups
 general      relative     1.00000E-02   0.0000         always_3   2.0000     outside_pts
* parameter data
 k_rb         none   factor     1.20000E-03  1.20000E-08  1.20000E-00      general   1.0000       0.0000       1
 vk_cb        none   factor     1.00000E-07  1.00000E-12  1.00000E-00      general   1.0000       0.0000       1
 hk_2         none   factor     4.00000E-05  4.00000E-12  4.00000E-00      general   1.0000       0.0000       1
 rch_1        none   factor      63.072      3.000e-4       880.000          general   1.0000       0.0000       1
 rch_2        none   factor      31.536       2.000e-4      960.000          general   1.0000       0.0000       1
 pobs1        log    factor     3.00000E-04  3.00000E-09  3.00000E-00      general   1.0000       0.0000       1
 p2           log    factor     3.00000E-04  3.00000E-09  3.00000E-00      general   1.0000       0.0000       1
 p3           log    factor     3.00000E-04  3.00000E-09  3.00000E-00      general   1.0000       0.0000       1
 p4           log    factor     3.00000E-04  3.00000E-09  3.00000E-00      general   1.0000       0.0000       1
 p5           log    factor     3.00000E-04  3.00000E-09  3.00000E-00      general   1.0000       0.0000       1
 p6           log    factor     3.00000E-04  3.00000E-09  3.00000E-00      general   1.0000       0.0000       1
 p7           log    factor     3.00000E-04  3.00000E-09  3.00000E-00      general   1.0000       0.0000       1
 pobs2        log    factor     3.00000E-04  3.00000E-09  3.00000E-00      general   1.0000       0.0000       1
 p9           log    factor     3.00000E-04  3.00000E-09  3.00000E-00      general   1.0000       0.0000       1
 p10          log    factor     3.00000E-04  3.00000E-09  3.00000E-00      general   1.0000       0.0000       1
 pobs4        log    factor     3.00000E-04  3.00000E-09  3.00000E-00      general   1.0000       0.0000       1
 p12          log    factor     3.00000E-04  3.00000E-09  3.00000E-00      general   1.0000       0.0000       1
 p13          log    factor     3.00000E-04  3.00000E-09  3.00000E-00      general   1.0000       0.0000       1
 p14          log    factor     3.00000E-04  3.00000E-09  3.00000E-00      general   1.0000       0.0000       1
 p15          log    factor     3.00000E-04  3.00000E-09  3.00000E-00      general   1.0000       0.0000       1
 pobs3        log    factor     3.00000E-04  3.00000E-09  3.00000E-00      general   1.0000       0.0000       1
 pobs5        log    factor     3.00000E-04  3.00000E-09  3.00000E-00      general   1.0000       0.0000       1
 p18          log    factor     3.00000E-04  3.00000E-09  3.00000E-00      general   1.0000       0.0000       1
 p19          log    factor     3.00000E-04  3.00000E-09  3.00000E-00      general   1.0000       0.0000       1
 p20          log    factor     3.00000E-04  3.00000E-09  3.00000E-00      general   1.0000       0.0000       1
 p21          log    factor     3.00000E-04  3.00000E-09  3.00000E-00      general   1.0000       0.0000       1
 p22          log    factor     3.00000E-04  3.00000E-09  3.00000E-00      general   1.0000       0.0000       1
 p23          log    factor     3.00000E-04  3.00000E-09  3.00000E-00      general   1.0000       0.0000       1
 p24          log    factor     3.00000E-04  3.00000E-09  3.00000E-00      general   1.0000       0.0000       1
 p25          log    factor     3.00000E-04  3.00000E-09  3.00000E-00      general   1.0000       0.0000       1
 p26          log    factor     3.00000E-04  3.00000E-09  3.00000E-00      general   1.0000       0.0000       1
 p27          log    factor     3.00000E-04  3.00000E-09  3.00000E-00      general   1.0000       0.0000       1
 p28          log    factor     3.00000E-04  3.00000E-09  3.00000E-00      general   1.0000       0.0000       1
 p29          log    factor     3.00000E-04  3.00000E-09  3.00000E-00      general   1.0000       0.0000       1
 p30          log    factor     3.00000E-04  3.00000E-09  3.00000E-00      general   1.0000       0.0000       1
 p31          log    factor     3.00000E-04  3.00000E-09  3.00000E-00      general   1.0000       0.0000       1
 p32          log    factor     3.00000E-04  3.00000E-09  3.00000E-00      general   1.0000       0.0000       1
 p33          log    factor     3.00000E-04  3.00000E-09  3.00000E-00      general   1.0000       0.0000       1
 p34          log    factor     3.00000E-04  3.00000E-09  3.00000E-00      general   1.0000       0.0000       1
 p35          log    factor     3.00000E-04  3.00000E-09  3.00000E-00      general   1.0000       0.0000       1
 p36          log    factor     3.00000E-04  3.00000E-09  3.00000E-00      general   1.0000       0.0000       1
* observation groups
regulhk1
 head
 river
* observation data
 1.0            100.225       0.998752      head
 2.0            126.939       0.998752      head
 3.0            157.146       0.998752      head
 4.0            126.939       0.998752      head
 5.0            140.863       0.998752      head
 6.0            127.149       0.998752      head
 7.0            101.235       0.998752      head
 8.0            157.133       0.998752      head
 9.0            176.945       0.998752      head
 10.0           140.973       0.998752      head
 ss            -4.05404        2.50000      river
* model command line
 modrun1.bat >nul
* model input/output
 tc1-new.sen.tpl tc1-new.sen
 points.file.tpl points.file.new
 modobs.ins tc1._os
 precision.ins testPrecision.out
* prior information
r1   1 * log(p2) -      1 * log(pobs1) = 0    1   regulhk1
r2   1 * log(p3) -      1 * log(pobs1) = 0    1   regulhk1
r3   1 * log(p4) -      1 * log(pobs1) = 0    1   regulhk1
r4   1 * log(p5) -      1 * log(pobs1) = 0    1   regulhk1
r5   1 * log(p6) -      1 * log(pobs1) = 0    1   regulhk1
r6   1 * log(p7) -      1 * log(pobs1) = 0    1   regulhk1
r7   1 * log(pobs2) -   1 * log(pobs1) = 0    1   regulhk1
r8   1 * log(p9) -      1 * log(pobs1) = 0    1   regulhk1
r9   1 * log(p10) -     1 * log(pobs1) = 0    1   regulhk1
r10   1 * log(pobs4) -  1 * log(pobs1) = 0    1   regulhk1
r11   1 * log(p12) -    1 * log(pobs1) = 0    1   regulhk1
r12   1 * log(p13) -    1 * log(pobs1) = 0    1   regulhk1
r13   1 * log(p14) -    1 * log(pobs1) = 0    1   regulhk1
r14   1 * log(p15) -    1 * log(pobs1) = 0    1   regulhk1
r15   1 * log(pobs3) -  1 * log(pobs1) = 0    1   regulhk1
r16   1 * log(pobs5) -  1 * log(pobs1) = 0    1   regulhk1
r17   1 * log(p18) -    1 * log(pobs1) = 0    1   regulhk1
r18   1 * log(p19) -    1 * log(pobs1) = 0    1   regulhk1
r19   1 * log(p20) -    1 * log(pobs1) = 0    1   regulhk1
r20   1 * log(p21) -    1 * log(pobs1) = 0    1   regulhk1
r21   1 * log(p22) -    1 * log(pobs1) = 0    1   regulhk1
r22   1 * log(p23) -    1 * log(pobs1) = 0    1   regulhk1
r23   1 * log(p24) -    1 * log(pobs1) = 0    1   regulhk1
r24   1 * log(p25) -    1 * log(pobs1) = 0    1   regulhk1
r25   1 * log(p26) -    1 * log(pobs1) = 0    1   regulhk1
r26   1 * log(p27) -    1 * log(pobs1) = 0    1   regulhk1
r27   1 * log(p28) -    1 * log(pobs1) = 0    1   regulhk1
r28   1 * log(p29) -    1 * log(pobs1) = 0    1   regulhk1
r29   1 * log(p30) -    1 * log(pobs1) = 0    1   regulhk1
r30   1 * log(p31) -    1 * log(pobs1) = 0    1   regulhk1
r31   1 * log(p32) -    1 * log(pobs1) = 0    1   regulhk1
r32   1 * log(p33) -    1 * log(pobs1) = 0    1   regulhk1
r33   1 * log(p34) -    1 * log(pobs1) = 0    1   regulhk1
r34   1 * log(p35) -    1 * log(pobs1) = 0    1   regulhk1
r35   1 * log(p36) -    1 * log(pobs1) = 0    1   regulhk1
* regularisation
 8.0E-10  8.2E-10
   1.0000      1.00000E-10  1.00000E+10
   1.3 1.0e-2  1
