pcf
* control data
restart estimation
15 4833 5 0 2
1  1  double  point  1  0  0
1.000000e+001  2.000000e+000  3.000000e-001  1.000000e-002  10
1.000000e+001  1.000000e+001  1.000000e-003
1.000000e-001 noaui
0  1.000000e-002  3  3  1.000000e-002  3 **** CONTROLS OPTIMIZATION: SEE PEST MANUAL ****
1  1  1
* parameter groups
Kh     relative   1.000000e-002  0.000000e+000  switch  2.000000e+000  parabolic
Base   relative   1.000000e-002  0.000000e+000  switch  2.000000e+000  parabolic
Khi    relative   1.000000e-002  0.000000e+000  switch  2.000000e+000  parabolic
Rch    relative   1.000000e-002  0.000000e+000  switch  2.000000e+000  parabolic
Res    relative   1.000000e-002  0.000000e+000  switch  2.000000e+000  parabolic
* parameter data
Kglobal_____	log   factor   15	 1.5	 150	Kh     1.0      0.0 1
BaseElev____	none  factor   450	 45	 4500	Base   1.0      0.0 1
Kdriftless1_	log   factor   40	 4	 400	Khi    1.0      0.0 1
Koutwash____	log   factor   50	 5	 500	Khi    1.0      0.0 1
KoutwashN___	log   factor   112.05	 11.205	 1120.5	Khi    1.0      0.0 1
Kuplands____	log   factor   1.991	 .1991	 19.91	Khi    1.0      0.0 1
Kwiscriver__	log   factor   112.05	 11.205	 1120.5	Khi    1.0      0.0 1
Rdriftless__	none  factor   .0001	 .00001	 .001	Rch    -1.0     0.0 1
Rdrumlin____	none  factor  -.0003	-.003	-.00003	Rch    -1.0     0.0 1
Rglobal_____	none  factor   .0018	 .00018	 .018	Rch    -1.0     0.0 1
Rlow________	none  factor  -.0008	-.008	-.00008	Rch    -1.0     0.0 1
RoutwashN___	none  factor   0	 0	 0	Rch    -1.0     0.0 1
Cstream_____	none  factor   .5	 .05	 5	Res    1.0      0.0 1
lakeC_______	none  factor   2	 .2	 20	Res    1.0      0.0 1
resistance__	none  factor   .5	 .05	 5	Res    1.0      0.0 1
* observation groups
Head
Streamflow
* observation data
6089030301_best 852.449	1.000000 Head
3088472201_best 789.361	1.000000 Head
8089294301_best 981.626	1.000000 Head
9089241501_best 809.405	1.000000 Head
3089184701_best 831.991	1.000000 Head
5089243101_best 847.056	1.000000 Head
6089232901_best 847.959	1.000000 Head
7089284901_best 867.195	1.000000 Head
9089230301_best 828.872	1.000000 Head
0089224901_best 797.241	1.000000 Head
6089190601_best 843.139	1.000000 Head
6089224101_best 795.27	1.000000 Head
1088492001_best 806.006	1.000000 Head
1089212801_best 797.793	1.000000 Head
2089395301_best 853.719	1.000000 Head
8089385701_best 866.988	1.000000 Head
8089385901_best 866.938	1.000000 Head
9089385801_best 866.52	1.000000 Head
8089291501_best 863.488	1.000000 Head
9089185401_best 841.998	1.000000 Head
7089222501_best 858.133	1.000000 Head
8089444501_best 805.222	1.000000 Head
1089192101_best 893.238	1.000000 Head
2089103101_best 924.601	1.000000 Head
3089103201_best 911.438	1.000000 Head
2089475301_best 729.25	1.000000 Head
6088541201_best 869.908	1.000000 Head
0089440001_best 815.407	1.000000 Head
1089460101_best 798.368	1.000000 Head
5088552601_best 852.594	1.000000 Head
4089114801_best 964.427	1.000000 Head
2089204601_best 811.966	1.000000 Head
6089275601_best 783.533	1.000000 Head
4089100701_best 791.1	1.000000 Head
4089471201_best 859.64	1.000000 Head
1089365001_best 879.88	1.000000 Head
5089184801_best 790.924	1.000000 Head
1088592301_good 841.65	1.000000 Head
7088592501_good 833.55	1.000000 Head
1088581401_good 834	1.000000 Head
1088584601_good 837.06	1.000000 Head
8088584201_good 831	1.000000 Head
8088585601_good 839	1.000000 Head
0088585401_good 836	1.000000 Head
4089001201_good 839.77	1.000000 Head
6089003001_good 844.17	1.000000 Head
9088592701_good 836.44	1.000000 Head
0089004201_good 832.59	1.000000 Head
1088563301_good 847.037	1.000000 Head
3088593901_good 832	1.000000 Head
8089181101_good 820.811	1.000000 Head
2088593201_good 839.91	1.000000 Head
5089242701_good 855.16	1.000000 Head
7089245901_good 865.86	1.000000 Head
8089251401_good 843.77	1.000000 Head
0088584501_good 843.01	1.000000 Head
8088583001_good 845.27	1.000000 Head
4088473501_good 824.545	1.000000 Head
4089150201_good 865	1.000000 Head
0089233602_good 820.96	1.000000 Head
5089260401_good 854	1.000000 Head
0089223702_good 740.62	1.000000 Head
2089351401_good 877.07	1.000000 Head
6089344501_good 919.17	1.000000 Head
7089450001_good 830.007	1.000000 Head
6089231801_good 858.78	1.000000 Head
3089174301_good 868.06	1.000000 Head
0089481301_good 754.747	1.000000 Head
7088590201_good 813	1.000000 Head
0088561001_good 803	1.000000 Head
6089470201_good 745	1.000000 Head
6089414401_good 830	1.000000 Head
6088593801_good 835	1.000000 Head
7088563401_good 837	1.000000 Head
7088565901_good 791	1.000000 Head
7089483001_good 728.17	1.000000 Head
2089433401_good 709.739	1.000000 Head
3089215301_good 885.326	1.000000 Head
2089432801_good 866.407	1.000000 Head
8089162501_good 936.53	1.000000 Head
6089235301_good 780	1.000000 Head
3089270501_good 782.814	1.000000 Head
9089510601_good 888.453	1.000000 Head
1088585501_good 878.4	1.000000 Head
6089170001_fair 840	1.000000 Head
7089170101_fair 860	1.000000 Head
8089172201_fair 841.25	1.000000 Head
6089172701_fair 844	1.000000 Head
0089164801_fair 866	1.000000 Head
3089135701_fair 838	1.000000 Head
6089020001_fair 817	1.000000 Head
0088595101_fair 834	1.000000 Head
0089055401_fair 933	1.000000 Head
3088594101_fair 840	1.000000 Head
0088571301_fair 864	1.000000 Head
7088555201_fair 862	1.000000 Head
7089003601_fair 837	1.000000 Head
9089002401_fair 830	1.000000 Head
0089010201_fair 824	1.000000 Head
1089233901_fair 892	1.000000 Head
2088503401_fair 808	1.000000 Head
4088590601_fair 813	1.000000 Head
4088590901_fair 811	1.000000 Head
4089002201_fair 829	1.000000 Head
4089224001_fair 867	1.000000 Head
7089112501_fair 878	1.000000 Head
2088592601_fair 821	1.000000 Head
5089100101_fair 907	1.000000 Head
4089012701_fair 842	1.000000 Head
6089232601_fair 840	1.000000 Head
8088531401_fair 844.48	1.000000 Head
9089251301_fair 868.5	1.000000 Head
4089215401_fair 834	1.000000 Head
1040892504_fair 865	1.000000 Head
6088514101_fair 816	1.000000 Head
7089030001_fair 858	1.000000 Head
9089220001_fair 835	1.000000 Head
9089242201_fair 853	1.000000 Head
4089263801_fair 905	1.000000 Head
6089023501_fair 840	1.000000 Head
5089270501_fair 877	1.000000 Head
7089140501_fair 848	1.000000 Head
6088500601_fair 791.6	1.000000 Head
7089232801_fair 850	1.000000 Head
0089302201_fair 891.72	1.000000 Head
7089180601_fair 845.17	1.000000 Head
7089274701_fair 904	1.000000 Head
8089181501_fair 847	1.000000 Head
9089152601_fair 867	1.000000 Head
1089153301_fair 859.715	1.000000 Head
2010892126_fair 837.2	1.000000 Head
8089181101_fair 847	1.000000 Head
8089181201_fair 841	1.000000 Head
1089145701_fair 852	1.000000 Head
2130892952_fair 934.565	1.000000 Head
5089145401_fair 852	1.000000 Head
5089265001_fair 860	1.000000 Head
5089272701_fair 927	1.000000 Head
7089175301_fair 851	1.000000 Head
2180884725_fair 785	1.000000 Head
0089175301_fair 849	1.000000 Head
0089221401_fair 851.5	1.000000 Head
1089234801_fair 848.19	1.000000 Head
2089221101_fair 851.91	1.000000 Head
2089221501_fair 851.72	1.000000 Head
3088472301_fair 778.875	1.000000 Head
3089175301_fair 850	1.000000 Head
4089175401_fair 850	1.000000 Head
8089181001_fair 843	1.000000 Head
0089181801_fair 844	1.000000 Head
1089152701_fair 858	1.000000 Head
1089254301_fair 848	1.000000 Head
2089153401_fair 861.505	1.000000 Head
7089245401_fair 847	1.000000 Head
9089245301_fair 853	1.000000 Head
2400891613_fair 850.5	1.000000 Head
2410884810_fair 782	1.000000 Head
2089153601_fair 825.5	1.000000 Head
2089295701_fair 958.375	1.000000 Head
4089214401_fair 824.67	1.000000 Head
6088581901_fair 835	1.000000 Head
8088472701_fair 788	1.000000 Head
9089160401_fair 887	1.000000 Head
9089271601_fair 919	1.000000 Head
9089282002_fair 966	1.000000 Head
1089313001_fair 954	1.000000 Head
0088581301_fair 835	1.000000 Head
3089312301_fair 965	1.000000 Head
4089041301_fair 915	1.000000 Head
4089312301_fair 944	1.000000 Head
5089195501_fair 842.17	1.000000 Head
5089222101_fair 847	1.000000 Head
8089043501_fair 847	1.000000 Head
6089042701_fair 855.5	1.000000 Head
8089284101_fair 905	1.000000 Head
5089254001_fair 852.83	1.000000 Head
1089310601_fair 945	1.000000 Head
0089295202_fair 871.1	1.000000 Head
2089281401_fair 888	1.000000 Head
6089240001_fair 832.16	1.000000 Head
3470892020_fair 853	1.000000 Head
1088573901_fair 836	1.000000 Head
2089261301_fair 861.61	1.000000 Head
6089233301_fair 839.45	1.000000 Head
1089272801_fair 868	1.000000 Head
4089282501_fair 880	1.000000 Head
4170891855_fair 851.25	1.000000 Head
4089254601_fair 820	1.000000 Head
5089260901_fair 847.63	1.000000 Head
6089171701_fair 869	1.000000 Head
7088581301_fair 837	1.000000 Head
2089290701_fair 882	1.000000 Head
4088544201_fair 825.25	1.000000 Head
9088545601_fair 827	1.000000 Head
0089281001_fair 863.33	1.000000 Head
0089281401_fair 859.5	1.000000 Head
1089290701_fair 885	1.000000 Head
1089290702_fair 901	1.000000 Head
1089401701_fair 898.1	1.000000 Head
5089222001_fair 805.83	1.000000 Head
9088564801_fair 837	1.000000 Head
4490890407_fair 849	1.000000 Head
0088540301_fair 814	1.000000 Head
0089230101_fair 826	1.000000 Head
1089273901_fair 812	1.000000 Head
4089340001_fair 910	1.000000 Head
5089182201_fair 844	1.000000 Head
6089115801_fair 868	1.000000 Head
9089324401_fair 919.09	1.000000 Head
1089164701_fair 881	1.000000 Head
2088522601_fair 813	1.000000 Head
3089250501_fair 838.01	1.000000 Head
5089250501_fair 849	1.000000 Head
8088542601_fair 812	1.000000 Head
9089263001_fair 849.7	1.000000 Head
0089214301_fair 840	1.000000 Head
2089255801_fair 837.12	1.000000 Head
5270892020_fair 838.1	1.000000 Head
1089351401_fair 908.67	1.000000 Head
4089305801_fair 896	1.000000 Head
6089305201_fair 903	1.000000 Head
7089214001_fair 825.87	1.000000 Head
8089304701_fair 913.05	1.000000 Head
0089294001_fair 858.75	1.000000 Head
5089305001_fair 898.88	1.000000 Head
5089311901_fair 900	1.000000 Head
9089190001_fair 840	1.000000 Head
8089221001_fair 836.03	1.000000 Head
9089001801_fair 830	1.000000 Head
9089190101_fair 841	1.000000 Head
9089390101_fair 869	1.000000 Head
5089285701_fair 860	1.000000 Head
6089182701_fair 818	1.000000 Head
9089173101_fair 864.2	1.000000 Head
5089212401_fair 783	1.000000 Head
6260893210_fair 920	1.000000 Head
6270891855_fair 849	1.000000 Head
0089212201_fair 819	1.000000 Head
6310884634_fair 778	1.000000 Head
3089212701_fair 857	1.000000 Head
9089282501_fair 857.61	1.000000 Head
1089391801_fair 853	1.000000 Head
2089523501_fair 775	1.000000 Head
5089183501_fair 850.4	1.000000 Head
0089164501_fair 860	1.000000 Head
0089212601_fair 820	1.000000 Head
1089224201_fair 867	1.000000 Head
1089393301_fair 855.5	1.000000 Head
4089300501_fair 886.5	1.000000 Head
6560892257_fair 840.87	1.000000 Head
7089391701_fair 857	1.000000 Head
8089265201_fair 851	1.000000 Head
8089392001_fair 857	1.000000 Head
0089051201_fair 860	1.000000 Head
1089541201_fair 800	1.000000 Head
2088532801_fair 803.6	1.000000 Head
4088532301_fair 790	1.000000 Head
5089213801_fair 849	1.000000 Head
2089222301_fair 844	1.000000 Head
4089270901_fair 850	1.000000 Head
8089190701_fair 842	1.000000 Head
1089410501_fair 825	1.000000 Head
8089022901_fair 868	1.000000 Head
1089261701_fair 837	1.000000 Head
9089072101_fair 864.5	1.000000 Head
7410891935_fair 858	1.000000 Head
5089425301_fair 820.66	1.000000 Head
7088504501_fair 793	1.000000 Head
7089225101_fair 849.12	1.000000 Head
1089230101_fair 856	1.000000 Head
6089071901_fair 868.75	1.000000 Head
8089183101_fair 862.5	1.000000 Head
8089242901_fair 849	1.000000 Head
7590892223_fair 845	1.000000 Head
2089235001_fair 852.96	1.000000 Head
7089171701_fair 845	1.000000 Head
7089255401_fair 858	1.000000 Head
4089445001_fair 808.89	1.000000 Head
8210891935_fair 851.5	1.000000 Head
1089481901_fair 801	1.000000 Head
5089204601_fair 818	1.000000 Head
2089234101_fair 853.45	1.000000 Head
0088575601_fair 837	1.000000 Head
2088560501_fair 785	1.000000 Head
4089223102_fair 852.75	1.000000 Head
8480892143_fair 854	1.000000 Head
4089095201_fair 894	1.000000 Head
4089215501_fair 858	1.000000 Head
9089313401_fair 935	1.000000 Head
8089251801_fair 861	1.000000 Head
6089461001_fair 785	1.000000 Head
0089015001_fair 842	1.000000 Head
1089254001_fair 850	1.000000 Head
4088542001_fair 750	1.000000 Head
4089231501_fair 860	1.000000 Head
8089011501_fair 834.8	1.000000 Head
0089040601_fair 837	1.000000 Head
4089033701_fair 842	1.000000 Head
9089352101_fair 934.98	1.000000 Head
6089473001_fair 793	1.000000 Head
4089502001_fair 737	1.000000 Head
0089474001_fair 751	1.000000 Head
6088475301_fair 804	1.000000 Head
7089494001_fair 748	1.000000 Head
5089151601_fair 886	1.000000 Head
1089352101_fair 927	1.000000 Head
1089481401_fair 750.96	1.000000 Head
2089002001_fair 821	1.000000 Head
0520890023_fair 822	1.000000 Head
3089123901_fair 893	1.000000 Head
3089352801_fair 938	1.000000 Head
8089244901_fair 877	1.000000 Head
0089012801_fair 826	1.000000 Head
7089124401_fair 904	1.000000 Head
1089480401_fair 709	1.000000 Head
3088590801_fair 808	1.000000 Head
3089091601_fair 876	1.000000 Head
4088592201_fair 809	1.000000 Head
4088594201_fair 812	1.000000 Head
0089265201_fair 903.7	1.000000 Head
3089492801_fair 737	1.000000 Head
6089133001_fair 921	1.000000 Head
7089133001_fair 901	1.000000 Head
4088503401_fair 800	1.000000 Head
5088492101_fair 796	1.000000 Head
5088533101_fair 786	1.000000 Head
7089502601_fair 723	1.000000 Head
4088582601_fair 794	1.000000 Head
1088514301_fair 790	1.000000 Head
1089474101_fair 735	1.000000 Head
4088544601_fair 787	1.000000 Head
5088542601_fair 795	1.000000 Head
0088563401_fair 838	1.000000 Head
4089085001_fair 874	1.000000 Head
6089470201_fair 736	1.000000 Head
1088551301_fair 812	1.000000 Head
3088555101_fair 856	1.000000 Head
7088592201_fair 832	1.000000 Head
9088590701_fair 837	1.000000 Head
6088521401_fair 765	1.000000 Head
6088592701_fair 810	1.000000 Head
7089105301_fair 911	1.000000 Head
7089201401_fair 903	1.000000 Head
1089053201_fair 863	1.000000 Head
8088575301_fair 797	1.000000 Head
3090890035_fair 858	1.000000 Head
1088471001_fair 840	1.000000 Head
2088544701_fair 798	1.000000 Head
3150885529_fair 812	1.000000 Head
6088475101_fair 815	1.000000 Head
3160892257_fair 914.44	1.000000 Head
6088463801_fair 813	1.000000 Head
7089113001_fair 917	1.000000 Head
3310892126_fair 894	1.000000 Head
2088463301_fair 845	1.000000 Head
5089183001_fair 975	1.000000 Head
6088572801_fair 791	1.000000 Head
7088503401_fair 796	1.000000 Head
9088503401_fair 801	1.000000 Head
3088531801_fair 792	1.000000 Head
4120890023_fair 845	1.000000 Head
4088543301_fair 787	1.000000 Head
7088530901_fair 749	1.000000 Head
2088470701_fair 825	1.000000 Head
4088474201_fair 816	1.000000 Head
0088464601_fair 822	1.000000 Head
8088565001_fair 790	1.000000 Head
0088473701_fair 822	1.000000 Head
5088545801_fair 806	1.000000 Head
7088484101_fair 801	1.000000 Head
7088580801_fair 815	1.000000 Head
0089202101_fair 926	1.000000 Head
8089120501_fair 905	1.000000 Head
1089300101_fair 914	1.000000 Head
2089200501_fair 922	1.000000 Head
0089014501_fair 880	1.000000 Head
1089135201_fair 923	1.000000 Head
5089230901_fair 945	1.000000 Head
8089193301_fair 902	1.000000 Head
9088522301_fair 810	1.000000 Head
2088541101_fair 814	1.000000 Head
5088532501_fair 797	1.000000 Head
5089075501_fair 901	1.000000 Head
8089070201_fair 906	1.000000 Head
2088591301_fair 806	1.000000 Head
6089200401_fair 931	1.000000 Head
6089202101_fair 926.5	1.000000 Head
8088550001_fair 837	1.000000 Head
0088575801_fair 813	1.000000 Head
3088553801_fair 809	1.000000 Head
5089461701_fair 733	1.000000 Head
8088475801_fair 793	1.000000 Head
8088560601_fair 798	1.000000 Head
0089434101_fair 806	1.000000 Head
3088500201_fair 797	1.000000 Head
3089081301_fair 919	1.000000 Head
6040890904_fair 919	1.000000 Head
2089445301_fair 739	1.000000 Head
4088555501_fair 810	1.000000 Head
9089210101_fair 940	1.000000 Head
6089433201_fair 730	1.000000 Head
3088542001_fair 835	1.000000 Head
9088502901_fair 782	1.000000 Head
0088503201_fair 805	1.000000 Head
4089455101_fair 675	1.000000 Head
6088522101_fair 845	1.000000 Head
8089193601_fair 939.37	1.000000 Head
3089431801_fair 730	1.000000 Head
7089024201_fair 784	1.000000 Head
8088524801_fair 834	1.000000 Head
7088510901_fair 845	1.000000 Head
7089033901_fair 892	1.000000 Head
8089013801_fair 867	1.000000 Head
2088504201_fair 797	1.000000 Head
2088513701_fair 860	1.000000 Head
6089375701_fair 855	1.000000 Head
8089212401_fair 949	1.000000 Head
8089365901_fair 849.82	1.000000 Head
9089424401_fair 732	1.000000 Head
1088465801_fair 805	1.000000 Head
2089122401_fair 922	1.000000 Head
6089192301_fair 932	1.000000 Head
7089434801_fair 742	1.000000 Head
9089064401_fair 915	1.000000 Head
9089345301_fair 840	1.000000 Head
2089433701_fair 728	1.000000 Head
7550892257_fair 950	1.000000 Head
6089163801_fair 938	1.000000 Head
6089472301_fair 694	1.000000 Head
7089045101_fair 910	1.000000 Head
9089312101_fair 875	1.000000 Head
0088484701_fair 805	1.000000 Head
0089171301_fair 990	1.000000 Head
2089275001_fair 915	1.000000 Head
4088591401_fair 813	1.000000 Head
4089193201_fair 947.13	1.000000 Head
2088590801_fair 801	1.000000 Head
4089072801_fair 907	1.000000 Head
6089204901_fair 945	1.000000 Head
0089261901_fair 935	1.000000 Head
5089151201_fair 931	1.000000 Head
6089384601_fair 828	1.000000 Head
7089402101_fair 870	1.000000 Head
8089292001_fair 878	1.000000 Head
9088564601_fair 798	1.000000 Head
9089320201_fair 830	1.000000 Head
9089380401_fair 825	1.000000 Head
2089292701_fair 860	1.000000 Head
2089391701_fair 827	1.000000 Head
3089241301_fair 938	1.000000 Head
8330892952_fair 866	1.000000 Head
8089180201_fair 945	1.000000 Head
1089094801_fair 920	1.000000 Head
7089310601_fair 785	1.000000 Head
9089073901_fair 953	1.000000 Head
9089311002_fair 825	1.000000 Head
0088473101_fair 788	1.000000 Head
1089082501_fair 950	1.000000 Head
3088473301_fair 784	1.000000 Head
3089415801_fair 780	1.000000 Head
4089030001_fair 821	1.000000 Head
7089425501_fair 745	1.000000 Head
6089120601_fair 920	1.000000 Head
1088581401_fair 816	1.000000 Head
7088473801_fair 784	1.000000 Head
8088484501_fair 793	1.000000 Head
9089121001_fair 920	1.000000 Head
1088555501_fair 763	1.000000 Head
1089305601_fair 815	1.000000 Head
4089202501_fair 943	1.000000 Head
5088470301_fair 773	1.000000 Head
5089002701_fair 824	1.000000 Head
7088495501_fair 795	1.000000 Head
7089193501_fair 972	1.000000 Head
7089235101_fair 936	1.000000 Head
9089101301_fair 913	1.000000 Head
9089120101_fair 924	1.000000 Head
1089194101_fair 966	1.000000 Head
2088495201_fair 790	1.000000 Head
2088583801_fair 820	1.000000 Head
2089193601_fair 984	1.000000 Head
3088593201_fair 823	1.000000 Head
6089075001_fair 918	1.000000 Head
7088495001_fair 820	1.000000 Head
8088570901_fair 826	1.000000 Head
8089102401_fair 909	1.000000 Head
9089462201_fair 767.59	1.000000 Head
1088572101_fair 820	1.000000 Head
1089342401_fair 785	1.000000 Head
2088521401_fair 825	1.000000 Head
9440885032_fair 817	1.000000 Head
4089382301_fair 805	1.000000 Head
7088482101_fair 803	1.000000 Head
7088494801_fair 795	1.000000 Head
0089303701_fair 837	1.000000 Head
2089304701_fair 833	1.000000 Head
3088564501_fair 816	1.000000 Head
3089182601_fair 952	1.000000 Head
6089182901_fair 965	1.000000 Head
6089430801_fair 742.249	1.000000 Head
0088563601_fair 796.932	1.000000 Head
0000891613_fair 985	1.000000 Head
0089272701_fair 885	1.000000 Head
0089274301_fair 870	1.000000 Head
0089400001_fair 750	1.000000 Head
0089450001_fair 795.89	1.000000 Head
4089140301_fair 953.92	1.000000 Head
5089222201_fair 935	1.000000 Head
5089223301_fair 946	1.000000 Head
6088533501_fair 808	1.000000 Head
7089001501_fair 822	1.000000 Head
9089330401_fair 810	1.000000 Head
0088491001_fair 814	1.000000 Head
0089155101_fair 991.2	1.000000 Head
8089244601_fair 895	1.000000 Head
0089004401_fair 841	1.000000 Head
1089224701_fair 938	1.000000 Head
3088500601_fair 807	1.000000 Head
6089363601_fair 805	1.000000 Head
7088572001_fair 805	1.000000 Head
2088551501_fair 825	1.000000 Head
5088542301_fair 814	1.000000 Head
7088564801_fair 833	1.000000 Head
0089285601_fair 875	1.000000 Head
3089460301_fair 769.411	1.000000 Head
4089252301_fair 885.517	1.000000 Head
6088594401_fair 828	1.000000 Head
9089000201_fair 829	1.000000 Head
0088572501_fair 827	1.000000 Head
1089155001_fair 975	1.000000 Head
2088500501_fair 808	1.000000 Head
2088544001_fair 831	1.000000 Head
2089285101_fair 860	1.000000 Head
3088561601_fair 821	1.000000 Head
7089314901_fair 805	1.000000 Head
8089381201_fair 760	1.000000 Head
0088505101_fair 750	1.000000 Head
1089362701_fair 695	1.000000 Head
4088475301_fair 808	1.000000 Head
4089264301_fair 935	1.000000 Head
5089385101_fair 760	1.000000 Head
8088594901_fair 815	1.000000 Head
1089270801_fair 882	1.000000 Head
2089340201_fair 788	1.000000 Head
3088490801_fair 806	1.000000 Head
4089095301_fair 904	1.000000 Head
4089095401_fair 940	1.000000 Head
5088505001_fair 816	1.000000 Head
9088562901_fair 847	1.000000 Head
9089373501_fair 784	1.000000 Head
1089394601_fair 760	1.000000 Head
7089402201_fair 770	1.000000 Head
0088522201_fair 827	1.000000 Head
0089344201_fair 773	1.000000 Head
1320893440_fair 776	1.000000 Head
4089331701_fair 785	1.000000 Head
7089351101_fair 774	1.000000 Head
4089155801_fair 954	1.000000 Head
4089230601_fair 879	1.000000 Head
5089342401_fair 772	1.000000 Head
1490890035_fair 838	1.000000 Head
2089024501_fair 856	1.000000 Head
4088530201_fair 838	1.000000 Head
4088581401_fair 880	1.000000 Head
4089085101_fair 916	1.000000 Head
4089274901_fair 845	1.000000 Head
5089241001_fair 890	1.000000 Head
8088581401_fair 867	1.000000 Head
8089275401_fair 855	1.000000 Head
0089250001_fair 860	1.000000 Head
1089263301_fair 895	1.000000 Head
4089342801_fair 766	1.000000 Head
5089143801_fair 946	1.000000 Head
7088474501_fair 808	1.000000 Head
7089303501_fair 772	1.000000 Head
7089314501_fair 780	1.000000 Head
8088500001_fair 815	1.000000 Head
3089313701_fair 773	1.000000 Head
5089055201_fair 885	1.000000 Head
5089315201_fair 790	1.000000 Head
7089002501_fair 828	1.000000 Head
9089021001_fair 839	1.000000 Head
9089322701_fair 792	1.000000 Head
1089084301_fair 915	1.000000 Head
2090004101_fair 860	1.000000 Head
3089372601_fair 779	1.000000 Head
6089100401_fair 953	1.000000 Head
6089274201_fair 828	1.000000 Head
2089024001_fair 872	1.000000 Head
5089083401_fair 920	1.000000 Head
3088544101_fair 810	1.000000 Head
3089023701_fair 858	1.000000 Head
5089242701_fair 859	1.000000 Head
6089330402_fair 772	1.000000 Head
1089245201_fair 806	1.000000 Head
2089252601_fair 805	1.000000 Head
2089273701_fair 820	1.000000 Head
5089032501_fair 852	1.000000 Head
8088553201_fair 836	1.000000 Head
8089173901_fair 945	1.000000 Head
1088583801_fair 848	1.000000 Head
4089322601_fair 780	1.000000 Head
6089024401_fair 862.5	1.000000 Head
8089241701_fair 805	1.000000 Head
9088551201_fair 833	1.000000 Head
9089261101_fair 805	1.000000 Head
4089274701_fair 800	1.000000 Head
5089052801_fair 870	1.000000 Head
5089294301_fair 780	1.000000 Head
3150892947_fair 806	1.000000 Head
5089322401_fair 787	1.000000 Head
3160893210_fair 758	1.000000 Head
7089354701_fair 755	1.000000 Head
8089203101_fair 980	1.000000 Head
8089323101_fair 777	1.000000 Head
9089203101_fair 925	1.000000 Head
1089104601_fair 933	1.000000 Head
1089195401_fair 910	1.000000 Head
4088574001_fair 872	1.000000 Head
6089195601_fair 945	1.000000 Head
6089315001_fair 775	1.000000 Head
6089315701_fair 780	1.000000 Head
8089192701_fair 945	1.000000 Head
9089350401_fair 789	1.000000 Head
2089234301_fair 851	1.000000 Head
4088515701_fair 797	1.000000 Head
5088564001_fair 880	1.000000 Head
5089231801_fair 827	1.000000 Head
7089274201_fair 802	1.000000 Head
8089223801_fair 890	1.000000 Head
9088485901_fair 802	1.000000 Head
1088504901_fair 814	1.000000 Head
3088532401_fair 813	1.000000 Head
3088533101_fair 814	1.000000 Head
5089020701_fair 854	1.000000 Head
7088572901_fair 855	1.000000 Head
3520893440_fair 825	1.000000 Head
3089023001_fair 842	1.000000 Head
4089323101_fair 781	1.000000 Head
5089344301_fair 742	1.000000 Head
9089160001_fair 935	1.000000 Head
3089320601_fair 797	1.000000 Head
4089313501_fair 804	1.000000 Head
6088591601_fair 855	1.000000 Head
4090892223_fair 866.42	1.000000 Head
1089240401_fair 823	1.000000 Head
1089323001_fair 760	1.000000 Head
3089313401_fair 670	1.000000 Head
4089323301_fair 785	1.000000 Head
7089172601_fair 940	1.000000 Head
9089163701_fair 941	1.000000 Head
9089210001_fair 884	1.000000 Head
0089270801_fair 799	1.000000 Head
0089310301_fair 765	1.000000 Head
2089214601_fair 825	1.000000 Head
5089164301_fair 943	1.000000 Head
7088505901_fair 835	1.000000 Head
7088511701_fair 835	1.000000 Head
7088584501_fair 868	1.000000 Head
7089262101_fair 804	1.000000 Head
1089432401_fair 840	1.000000 Head
2089214201_fair 885	1.000000 Head
3089235201_fair 822.21	1.000000 Head
5089432001_fair 866.895	1.000000 Head
6089201101_fair 915	1.000000 Head
6089432601_fair 931.4	1.000000 Head
8089230201_fair 840	1.000000 Head
0088481501_fair 827	1.000000 Head
1088534001_fair 828	1.000000 Head
2089215301_fair 874	1.000000 Head
4089105901_fair 935	1.000000 Head
4089432601_fair 927.15	1.000000 Head
4450885529_fair 842	1.000000 Head
6088564301_fair 857	1.000000 Head
7089315101_fair 778.64	1.000000 Head
7089315601_fair 774	1.000000 Head
9089214401_fair 860	1.000000 Head
1088513301_fair 818	1.000000 Head
1089032201_fair 836	1.000000 Head
4088463201_fair 855	1.000000 Head
5089181901_fair 930	1.000000 Head
8088465701_fair 846	1.000000 Head
6088475801_fair 828	1.000000 Head
6089300601_fair 780.71	1.000000 Head
7089143601_fair 936	1.000000 Head
1089265001_fair 790	1.000000 Head
2089143701_fair 930	1.000000 Head
6089002201_fair 883	1.000000 Head
7089054401_fair 858	1.000000 Head
1088510701_fair 827	1.000000 Head
4088534801_fair 844	1.000000 Head
4089121501_fair 962	1.000000 Head
5088535201_fair 855	1.000000 Head
6088533901_fair 825	1.000000 Head
7089110901_fair 950	1.000000 Head
7089222801_fair 881	1.000000 Head
8088545101_fair 876	1.000000 Head
9088533301_fair 850	1.000000 Head
9088561901_fair 832	1.000000 Head
0089090201_fair 922	1.000000 Head
2089434001_fair 960.77	1.000000 Head
4089015801_fair 870	1.000000 Head
6089300401_fair 775	1.000000 Head
7089085501_fair 930	1.000000 Head
8089220001_fair 836	1.000000 Head
8089234501_fair 790	1.000000 Head
5390885938_fair 877	1.000000 Head
9089221101_fair 855	1.000000 Head
0089082301_fair 900	1.000000 Head
2088465701_fair 842	1.000000 Head
2088482801_fair 834	1.000000 Head
2089250001_fair 785	1.000000 Head
3089214601_fair 860	1.000000 Head
4089212801_fair 854	1.000000 Head
4089235201_fair 815	1.000000 Head
5088483101_fair 807	1.000000 Head
6089285602_fair 791	1.000000 Head
8089435201_fair 859.177	1.000000 Head
9089053801_fair 884	1.000000 Head
2089263801_fair 811	1.000000 Head
5540891111_fair 930	1.000000 Head
4089254501_fair 808	1.000000 Head
7088523401_fair 865	1.000000 Head
7088593401_fair 857	1.000000 Head
8089132801_fair 918.521	1.000000 Head
6088485901_fair 832	1.000000 Head
6088542101_fair 860	1.000000 Head
6089180901_fair 885	1.000000 Head
7089443001_fair 942.365	1.000000 Head
8089294401_fair 796	1.000000 Head
6090885938_fair 861	1.000000 Head
9089115901_fair 942	1.000000 Head
2089342201_fair 873	1.000000 Head
3088554901_fair 862	1.000000 Head
5089251201_fair 800	1.000000 Head
6089340601_fair 878	1.000000 Head
7089235801_fair 807.15	1.000000 Head
8088513401_fair 860	1.000000 Head
9089241601_fair 779	1.000000 Head
1089084101_fair 926	1.000000 Head
6210891442_fair 900	1.000000 Head
2089140001_fair 850	1.000000 Head
3089144201_fair 920	1.000000 Head
3089251001_fair 804	1.000000 Head
3090023401_fair 902	1.000000 Head
5088501001_fair 853	1.000000 Head
5088575901_fair 877	1.000000 Head
5089340401_fair 920	1.000000 Head
6089005301_fair 884	1.000000 Head
6089155101_fair 916	1.000000 Head
6089340001_fair 875	1.000000 Head
7089082501_fair 917	1.000000 Head
7089162601_fair 882	1.000000 Head
8088530501_fair 853	1.000000 Head
8088530701_fair 872	1.000000 Head
1089252901_fair 770	1.000000 Head
2088052401_fair 860	1.000000 Head
2089195901_fair 855	1.000000 Head
3088493301_fair 841	1.000000 Head
6088481301_fair 842	1.000000 Head
9089273101_fair 812.1	1.000000 Head
3089143201_fair 890	1.000000 Head
4089180701_fair 900	1.000000 Head
4089284101_fair 775	1.000000 Head
5089314101_fair 785	1.000000 Head
9089022901_fair 873	1.000000 Head
2089180901_fair 837	1.000000 Head
6530884636_fair 825	1.000000 Head
3089302101_fair 773	1.000000 Head
7089013401_fair 858	1.000000 Head
8089214201_fair 805	1.000000 Head
9089140801_fair 885	1.000000 Head
0089102501_fair 918	1.000000 Head
0089133001_fair 887	1.000000 Head
2088560801_fair 866	1.000000 Head
3088545701_fair 824	1.000000 Head
4088480601_fair 842	1.000000 Head
6088500602_fair 844	1.000000 Head
9088501801_fair 855	1.000000 Head
0088480601_fair 850	1.000000 Head
6089165501_fair 845	1.000000 Head
7088501701_fair 857	1.000000 Head
9089435701_fair 822.169	1.000000 Head
0088540701_fair 871	1.000000 Head
0088565801_fair 857	1.000000 Head
0089112201_fair 888	1.000000 Head
4088582101_fair 876	1.000000 Head
7240890904_fair 915	1.000000 Head
5088541401_fair 854	1.000000 Head
5089085701_fair 927	1.000000 Head