pcf
* control data
restart regularisation
    150  10489      1      0     23  
    1    4 double point  1    0  0
   20.000       -3.0000      0.3  0.03  10     999  lamforgive
      0.100  10.0  0.001
 0.1
    50  0.005  4  4  0.005  4
1  1  1  1 nojcosaveitn reisaveitn
* singular value decomposition
     1
   150  5.0000000E-07
     1
* svd assist
columbia.pst
columbia.jco
    1    2    0    1    0
* parameter groups
 pargp absolute    0.015  0.0  switch    2.0 parabolic
* parameter data
par1         none  relative   10.000     1.0e-20  1.0e20  pargp  1.0  -10.000      1
par2         none  relative   10.000     1.0e-20  1.0e20  pargp  1.0  -10.000      1
par3         none  relative   10.000     1.0e-20  1.0e20  pargp  1.0  -10.000      1
par4         none  relative   10.000     1.0e-20  1.0e20  pargp  1.0  -10.000      1
par5         none  relative   10.000     1.0e-20  1.0e20  pargp  1.0  -10.000      1
par6         none  relative   10.000     1.0e-20  1.0e20  pargp  1.0  -10.000      1
par7         none  relative   10.000     1.0e-20  1.0e20  pargp  1.0  -10.000      1
par8         none  relative   10.000     1.0e-20  1.0e20  pargp  1.0  -10.000      1
par9         none  relative   10.000     1.0e-20  1.0e20  pargp  1.0  -10.000      1
par10        none  relative   10.000     1.0e-20  1.0e20  pargp  1.0  -10.000      1
par11        none  relative   10.000     1.0e-20  1.0e20  pargp  1.0  -10.000      1
par12        none  relative   10.000     1.0e-20  1.0e20  pargp  1.0  -10.000      1
par13        none  relative   10.000     1.0e-20  1.0e20  pargp  1.0  -10.000      1
par14        none  relative   10.000     1.0e-20  1.0e20  pargp  1.0  -10.000      1
par15        none  relative   10.000     1.0e-20  1.0e20  pargp  1.0  -10.000      1
par16        none  relative   10.000     1.0e-20  1.0e20  pargp  1.0  -10.000      1
par17        none  relative   10.000     1.0e-20  1.0e20  pargp  1.0  -10.000      1
par18        none  relative   10.000     1.0e-20  1.0e20  pargp  1.0  -10.000      1
par19        none  relative   10.000     1.0e-20  1.0e20  pargp  1.0  -10.000      1
par20        none  relative   10.000     1.0e-20  1.0e20  pargp  1.0  -10.000      1
par21        none  relative   10.000     1.0e-20  1.0e20  pargp  1.0  -10.000      1
par22        none  relative   10.000     1.0e-20  1.0e20  pargp  1.0  -10.000      1
par23        none  relative   10.000     1.0e-20  1.0e20  pargp  1.0  -10.000      1
par24        none  relative   10.000     1.0e-20  1.0e20  pargp  1.0  -10.000      1
par25        none  relative   10.000     1.0e-20  1.0e20  pargp  1.0  -10.000      1
par26        none  relative   10.000     1.0e-20  1.0e20  pargp  1.0  -10.000      1
par27        none  relative   10.000     1.0e-20  1.0e20  pargp  1.0  -10.000      1
par28        none  relative   10.000     1.0e-20  1.0e20  pargp  1.0  -10.000      1
par29        none  relative   10.000     1.0e-20  1.0e20  pargp  1.0  -10.000      1
par30        none  relative   10.000     1.0e-20  1.0e20  pargp  1.0  -10.000      1
par31        none  relative   10.000     1.0e-20  1.0e20  pargp  1.0  -10.000      1
par32        none  relative   10.000     1.0e-20  1.0e20  pargp  1.0  -10.000      1
par33        none  relative   10.000     1.0e-20  1.0e20  pargp  1.0  -10.000      1
par34        none  relative   10.000     1.0e-20  1.0e20  pargp  1.0  -10.000      1
par35        none  relative   10.000     1.0e-20  1.0e20  pargp  1.0  -10.000      1
par36        none  relative   10.000     1.0e-20  1.0e20  pargp  1.0  -10.000      1
par37        none  relative   10.000     1.0e-20  1.0e20  pargp  1.0  -10.000      1
par38        none  relative   10.000     1.0e-20  1.0e20  pargp  1.0  -10.000      1
par39        none  relative   10.000     1.0e-20  1.0e20  pargp  1.0  -10.000      1
par40        none  relative   10.000     1.0e-20  1.0e20  pargp  1.0  -10.000      1
par41        none  relative   10.000     1.0e-20  1.0e20  pargp  1.0  -10.000      1
par42        none  relative   10.000     1.0e-20  1.0e20  pargp  1.0  -10.000      1
par43        none  relative   10.000     1.0e-20  1.0e20  pargp  1.0  -10.000      1
par44        none  relative   10.000     1.0e-20  1.0e20  pargp  1.0  -10.000      1
par45        none  relative   10.000     1.0e-20  1.0e20  pargp  1.0  -10.000      1
par46        none  relative   10.000     1.0e-20  1.0e20  pargp  1.0  -10.000      1
par47        none  relative   10.000     1.0e-20  1.0e20  pargp  1.0  -10.000      1
par48        none  relative   10.000     1.0e-20  1.0e20  pargp  1.0  -10.000      1
par49        none  relative   10.000     1.0e-20  1.0e20  pargp  1.0  -10.000      1
par50        none  relative   10.000     1.0e-20  1.0e20  pargp  1.0  -10.000      1
par51        none  relative   10.000     1.0e-20  1.0e20  pargp  1.0  -10.000      1
par52        none  relative   10.000     1.0e-20  1.0e20  pargp  1.0  -10.000      1
par53        none  relative   10.000     1.0e-20  1.0e20  pargp  1.0  -10.000      1
par54        none  relative   10.000     1.0e-20  1.0e20  pargp  1.0  -10.000      1
par55        none  relative   10.000     1.0e-20  1.0e20  pargp  1.0  -10.000      1
par56        none  relative   10.000     1.0e-20  1.0e20  pargp  1.0  -10.000      1
par57        none  relative   10.000     1.0e-20  1.0e20  pargp  1.0  -10.000      1
par58        none  relative   10.000     1.0e-20  1.0e20  pargp  1.0  -10.000      1
par59        none  relative   10.000     1.0e-20  1.0e20  pargp  1.0  -10.000      1
par60        none  relative   10.000     1.0e-20  1.0e20  pargp  1.0  -10.000      1
par61        none  relative   10.000     1.0e-20  1.0e20  pargp  1.0  -10.000      1
par62        none  relative   10.000     1.0e-20  1.0e20  pargp  1.0  -10.000      1
par63        none  relative   10.000     1.0e-20  1.0e20  pargp  1.0  -10.000      1
par64        none  relative   10.000     1.0e-20  1.0e20  pargp  1.0  -10.000      1
par65        none  relative   10.000     1.0e-20  1.0e20  pargp  1.0  -10.000      1
par66        none  relative   10.000     1.0e-20  1.0e20  pargp  1.0  -10.000      1
par67        none  relative   10.000     1.0e-20  1.0e20  pargp  1.0  -10.000      1
par68        none  relative   10.000     1.0e-20  1.0e20  pargp  1.0  -10.000      1
par69        none  relative   10.000     1.0e-20  1.0e20  pargp  1.0  -10.000      1
par70        none  relative   10.000     1.0e-20  1.0e20  pargp  1.0  -10.000      1
par71        none  relative   10.000     1.0e-20  1.0e20  pargp  1.0  -10.000      1
par72        none  relative   10.000     1.0e-20  1.0e20  pargp  1.0  -10.000      1
par73        none  relative   10.000     1.0e-20  1.0e20  pargp  1.0  -10.000      1
par74        none  relative   10.000     1.0e-20  1.0e20  pargp  1.0  -10.000      1
par75        none  relative   10.000     1.0e-20  1.0e20  pargp  1.0  -10.000      1
par76        none  relative   10.000     1.0e-20  1.0e20  pargp  1.0  -10.000      1
par77        none  relative   10.000     1.0e-20  1.0e20  pargp  1.0  -10.000      1
par78        none  relative   10.000     1.0e-20  1.0e20  pargp  1.0  -10.000      1
par79        none  relative   10.000     1.0e-20  1.0e20  pargp  1.0  -10.000      1
par80        none  relative   10.000     1.0e-20  1.0e20  pargp  1.0  -10.000      1
par81        none  relative   10.000     1.0e-20  1.0e20  pargp  1.0  -10.000      1
par82        none  relative   10.000     1.0e-20  1.0e20  pargp  1.0  -10.000      1
par83        none  relative   10.000     1.0e-20  1.0e20  pargp  1.0  -10.000      1
par84        none  relative   10.000     1.0e-20  1.0e20  pargp  1.0  -10.000      1
par85        none  relative   10.000     1.0e-20  1.0e20  pargp  1.0  -10.000      1
par86        none  relative   10.000     1.0e-20  1.0e20  pargp  1.0  -10.000      1
par87        none  relative   10.000     1.0e-20  1.0e20  pargp  1.0  -10.000      1
par88        none  relative   10.000     1.0e-20  1.0e20  pargp  1.0  -10.000      1
par89        none  relative   10.000     1.0e-20  1.0e20  pargp  1.0  -10.000      1
par90        none  relative   10.000     1.0e-20  1.0e20  pargp  1.0  -10.000      1
par91        none  relative   10.000     1.0e-20  1.0e20  pargp  1.0  -10.000      1
par92        none  relative   10.000     1.0e-20  1.0e20  pargp  1.0  -10.000      1
par93        none  relative   10.000     1.0e-20  1.0e20  pargp  1.0  -10.000      1
par94        none  relative   10.000     1.0e-20  1.0e20  pargp  1.0  -10.000      1
par95        none  relative   10.000     1.0e-20  1.0e20  pargp  1.0  -10.000      1
par96        none  relative   10.000     1.0e-20  1.0e20  pargp  1.0  -10.000      1
par97        none  relative   10.000     1.0e-20  1.0e20  pargp  1.0  -10.000      1
par98        none  relative   10.000     1.0e-20  1.0e20  pargp  1.0  -10.000      1
par99        none  relative   10.000     1.0e-20  1.0e20  pargp  1.0  -10.000      1
par100       none  relative   10.000     1.0e-20  1.0e20  pargp  1.0  -10.000      1
par101       none  relative   10.000     1.0e-20  1.0e20  pargp  1.0  -10.000      1
par102       none  relative   10.000     1.0e-20  1.0e20  pargp  1.0  -10.000      1
par103       none  relative   10.000     1.0e-20  1.0e20  pargp  1.0  -10.000      1
par104       none  relative   10.000     1.0e-20  1.0e20  pargp  1.0  -10.000      1
par105       none  relative   10.000     1.0e-20  1.0e20  pargp  1.0  -10.000      1
par106       none  relative   10.000     1.0e-20  1.0e20  pargp  1.0  -10.000      1
par107       none  relative   10.000     1.0e-20  1.0e20  pargp  1.0  -10.000      1
par108       none  relative   10.000     1.0e-20  1.0e20  pargp  1.0  -10.000      1
par109       none  relative   10.000     1.0e-20  1.0e20  pargp  1.0  -10.000      1
par110       none  relative   10.000     1.0e-20  1.0e20  pargp  1.0  -10.000      1
par111       none  relative   10.000     1.0e-20  1.0e20  pargp  1.0  -10.000      1
par112       none  relative   10.000     1.0e-20  1.0e20  pargp  1.0  -10.000      1
par113       none  relative   10.000     1.0e-20  1.0e20  pargp  1.0  -10.000      1
par114       none  relative   10.000     1.0e-20  1.0e20  pargp  1.0  -10.000      1
par115       none  relative   10.000     1.0e-20  1.0e20  pargp  1.0  -10.000      1
par116       none  relative   10.000     1.0e-20  1.0e20  pargp  1.0  -10.000      1
par117       none  relative   10.000     1.0e-20  1.0e20  pargp  1.0  -10.000      1
par118       none  relative   10.000     1.0e-20  1.0e20  pargp  1.0  -10.000      1
par119       none  relative   10.000     1.0e-20  1.0e20  pargp  1.0  -10.000      1
par120       none  relative   10.000     1.0e-20  1.0e20  pargp  1.0  -10.000      1
par121       none  relative   10.000     1.0e-20  1.0e20  pargp  1.0  -10.000      1
par122       none  relative   10.000     1.0e-20  1.0e20  pargp  1.0  -10.000      1
par123       none  relative   10.000     1.0e-20  1.0e20  pargp  1.0  -10.000      1
par124       none  relative   10.000     1.0e-20  1.0e20  pargp  1.0  -10.000      1
par125       none  relative   10.000     1.0e-20  1.0e20  pargp  1.0  -10.000      1
par126       none  relative   10.000     1.0e-20  1.0e20  pargp  1.0  -10.000      1
par127       none  relative   10.000     1.0e-20  1.0e20  pargp  1.0  -10.000      1
par128       none  relative   10.000     1.0e-20  1.0e20  pargp  1.0  -10.000      1
par129       none  relative   10.000     1.0e-20  1.0e20  pargp  1.0  -10.000      1
par130       none  relative   10.000     1.0e-20  1.0e20  pargp  1.0  -10.000      1
par131       none  relative   10.000     1.0e-20  1.0e20  pargp  1.0  -10.000      1
par132       none  relative   10.000     1.0e-20  1.0e20  pargp  1.0  -10.000      1
par133       none  relative   10.000     1.0e-20  1.0e20  pargp  1.0  -10.000      1
par134       none  relative   10.000     1.0e-20  1.0e20  pargp  1.0  -10.000      1
par135       none  relative   10.000     1.0e-20  1.0e20  pargp  1.0  -10.000      1
par136       none  relative   10.000     1.0e-20  1.0e20  pargp  1.0  -10.000      1
par137       none  relative   10.000     1.0e-20  1.0e20  pargp  1.0  -10.000      1
par138       none  relative   10.000     1.0e-20  1.0e20  pargp  1.0  -10.000      1
par139       none  relative   10.000     1.0e-20  1.0e20  pargp  1.0  -10.000      1
par140       none  relative   10.000     1.0e-20  1.0e20  pargp  1.0  -10.000      1
par141       none  relative   10.000     1.0e-20  1.0e20  pargp  1.0  -10.000      1
par142       none  relative   10.000     1.0e-20  1.0e20  pargp  1.0  -10.000      1
par143       none  relative   10.000     1.0e-20  1.0e20  pargp  1.0  -10.000      1
par144       none  relative   10.000     1.0e-20  1.0e20  pargp  1.0  -10.000      1
par145       none  relative   10.000     1.0e-20  1.0e20  pargp  1.0  -10.000      1
par146       none  relative   10.000     1.0e-20  1.0e20  pargp  1.0  -10.000      1
par147       none  relative   10.000     1.0e-20  1.0e20  pargp  1.0  -10.000      1
par148       none  relative   10.000     1.0e-20  1.0e20  pargp  1.0  -10.000      1
par149       none  relative   10.000     1.0e-20  1.0e20  pargp  1.0  -10.000      1
par150       none  relative   10.000     1.0e-20  1.0e20  pargp  1.0  -10.000      1
* observation groups
WCRs1
WCRs2
dhdz
head_best
head_fair
head_good
head_poor
Lrg_streams
Sm_streams
cc_streams
headwaters
zero_streams
regul_kz6
regul_kz5
regul_kz4
regul_kz3
regul_kp6
regul_kp5
regul_kp4
regul_kp3
regul_kp
regul_kz
regul_rech
* observation data
7089222501_b 858.13 2.00e-01 head_best
1089192101_b 893.24 2.00e-01 head_best
2089103101_b 924.60 2.00e-01 head_best
3089103201_b 911.44 2.00e-01 head_best
2089475301_b 729.25 2.00e-01 head_best
0089440001_b 815.41 2.00e-01 head_best
1089460101_b 798.37 2.00e-01 head_best
5088552601_b 852.59 2.00e-01 head_best
4089114801_b 964.43 2.00e-01 head_best
2089204601_b 811.97 2.00e-01 head_best
6089275601_b 783.53 2.00e-01 head_best
4089100701_b 791.10 2.00e-01 head_best
4089471201_b 859.64 2.00e-01 head_best
1089365001_b 879.88 2.00e-01 head_best
5089184801_b 790.92 2.00e-01 head_best
0089481301_g 754.75 2.00e-01 head_good
7088590201_g 813.00 2.00e-01 head_good
0088561001_g 803.00 2.00e-01 head_good
6089470201_g 745.00 2.00e-01 head_good
6089414401_g 830.00 2.00e-01 head_good
6088593801_g 835.00 2.00e-01 head_good
7088563401_g 837.00 2.00e-01 head_good
7088565901_g 791.00 2.00e-01 head_good
7089483001_g 728.17 2.00e-01 head_good
2089433401_g 709.74 2.00e-01 head_good
6088541201_g 869.91 2.00e-01 head_good
3089460301_g 769.41 2.00e-01 head_good
3089215301_g 885.33 2.00e-01 head_good
6089423701_g 841.09 2.00e-01 head_good
2089432801_g 866.41 2.00e-01 head_good
8089162501_g 936.53 2.00e-01 head_good
6089235301_g 780.00 2.00e-01 head_good
3089270501_g 782.81 2.00e-01 head_good
9089510601_g 888.45 2.00e-01 head_good
1088585501_g 878.40 2.00e-01 head_good
8210891935_f 851.50 3.33e-02 head_fair
5089204601_f 818.00 3.33e-02 head_fair
2089234101_f 853.45 3.33e-02 head_fair
0088575601_f 837.00 3.33e-02 head_fair
2088560501_f 785.00 3.33e-02 head_fair
4089223102_f 852.75 3.33e-02 head_fair
8480892143_f 854.00 3.33e-02 head_fair
5089223401_f 852.00 3.33e-02 head_fair
4089095201_f 894.00 3.33e-02 head_fair
4089215501_f 858.00 3.33e-02 head_fair
9089313401_f 935.00 3.33e-02 head_fair
8089251801_f 861.00 3.33e-02 head_fair
6089461001_f 785.00 3.33e-02 head_fair
0089015001_f 842.00 3.33e-02 head_fair
1089254001_f 850.00 3.33e-02 head_fair
4088542001_f 750.00 3.33e-02 head_fair
4089231501_f 860.00 3.33e-02 head_fair
0089040601_f 837.00 3.33e-02 head_fair
4089033701_f 842.00 3.33e-02 head_fair
9089352101_f 934.98 3.33e-02 head_fair
6089473001_f 793.00 3.33e-02 head_fair
4089502001_f 737.00 3.33e-02 head_fair
0089474001_f 751.00 3.33e-02 head_fair
6088475301_f 804.00 3.33e-02 head_fair
7089494001_f 748.00 3.33e-02 head_fair
5089151601_f 886.00 3.33e-02 head_fair
1089352101_f 927.00 3.33e-02 head_fair
1089481401_f 750.96 3.33e-02 head_fair
2089002001_f 821.00 3.33e-02 head_fair
0520890023_f 822.00 3.33e-02 head_fair
3089123901_f 893.00 3.33e-02 head_fair
3089123902_f 894.94 3.33e-02 head_fair
3089352801_f 938.00 3.33e-02 head_fair
8089244901_f 877.00 3.33e-02 head_fair
0089012801_f 826.00 3.33e-02 head_fair
7089124401_f 904.00 3.33e-02 head_fair
1089480401_f 709.00 3.33e-02 head_fair
3088590801_f 808.00 3.33e-02 head_fair
3089091601_f 876.00 3.33e-02 head_fair
4088592201_f 809.00 3.33e-02 head_fair
4088594201_f 812.00 3.33e-02 head_fair
0089265201_f 903.70 3.33e-02 head_fair
3089492801_f 737.00 3.33e-02 head_fair
6089133001_f 921.00 3.33e-02 head_fair
7089133001_f 901.00 3.33e-02 head_fair
4088503401_f 800.00 3.33e-02 head_fair
5088492101_f 796.00 3.33e-02 head_fair
5088533101_f 786.00 3.33e-02 head_fair
7089502601_f 723.00 3.33e-02 head_fair
4088582601_f 794.00 3.33e-02 head_fair
1088514301_f 790.00 3.33e-02 head_fair
1089474101_f 735.00 3.33e-02 head_fair
4088544601_f 787.00 3.33e-02 head_fair
5088542601_f 795.00 3.33e-02 head_fair
0088563401_f 838.00 3.33e-02 head_fair
4089085001_f 874.00 3.33e-02 head_fair
6089470201_f 736.00 3.33e-02 head_fair
1088551301_f 812.00 3.33e-02 head_fair
3088555101_f 856.00 3.33e-02 head_fair
7088592201_f 832.00 3.33e-02 head_fair
9088590701_f 837.00 3.33e-02 head_fair
6088521401_f 765.00 3.33e-02 head_fair
6088592701_f 810.00 3.33e-02 head_fair
7089105301_f 911.00 3.33e-02 head_fair
7089201401_f 903.00 3.33e-02 head_fair
1089053201_f 863.00 3.33e-02 head_fair
8088575301_f 797.00 3.33e-02 head_fair
3090890035_f 858.00 3.33e-02 head_fair
2088544701_f 798.00 3.33e-02 head_fair
3150885529_f 812.00 3.33e-02 head_fair
6088475101_f 815.00 3.33e-02 head_fair
3160892257_f 914.44 3.33e-02 head_fair
7089113001_f 917.00 3.33e-02 head_fair
3310892126_f 894.00 3.33e-02 head_fair
5089183001_f 975.00 3.33e-02 head_fair
6088572801_f 791.00 3.33e-02 head_fair
7088503401_f 796.00 3.33e-02 head_fair
9088503401_f 801.00 3.33e-02 head_fair
3088531801_f 792.00 3.33e-02 head_fair
4120890023_f 845.00 3.33e-02 head_fair
4088543301_f 787.00 3.33e-02 head_fair
7088530901_f 749.00 3.33e-02 head_fair
4088474201_f 816.00 3.33e-02 head_fair
8088565001_f 790.00 3.33e-02 head_fair
0088473701_f 822.00 3.33e-02 head_fair
5088545801_f 806.00 3.33e-02 head_fair
7088484101_f 801.00 3.33e-02 head_fair
7088580801_f 815.00 3.33e-02 head_fair
0089202101_f 926.00 3.33e-02 head_fair
8089120501_f 905.00 3.33e-02 head_fair
1089300101_f 914.00 3.33e-02 head_fair
2089200501_f 922.00 3.33e-02 head_fair
0089014501_f 880.00 3.33e-02 head_fair
1089135201_f 923.00 3.33e-02 head_fair
5089230901_f 945.00 3.33e-02 head_fair
8089193301_f 902.00 3.33e-02 head_fair
9088522301_f 810.00 3.33e-02 head_fair
2088541101_f 814.00 3.33e-02 head_fair
5088532501_f 797.00 3.33e-02 head_fair
5089075501_f 901.00 3.33e-02 head_fair
8089070201_f 906.00 3.33e-02 head_fair
2088591301_f 806.00 3.33e-02 head_fair
6089200401_f 931.00 3.33e-02 head_fair
6089202101_f 926.50 3.33e-02 head_fair
8088550001_f 837.00 3.33e-02 head_fair
0088575801_f 813.00 3.33e-02 head_fair
3088553801_f 809.00 3.33e-02 head_fair
5089461701_f 733.00 3.33e-02 head_fair
8088475801_f 793.00 3.33e-02 head_fair
8088560601_f 798.00 3.33e-02 head_fair
0089434101_f 806.00 3.33e-02 head_fair
3088500201_f 797.00 3.33e-02 head_fair
3089081301_f 919.00 3.33e-02 head_fair
6040890904_f 919.00 3.33e-02 head_fair
2089445301_f 739.00 3.33e-02 head_fair
4088555501_f 810.00 3.33e-02 head_fair
9089210101_f 940.00 3.33e-02 head_fair
6088541202_f 846.13 3.33e-02 head_fair
6089433201_f 730.00 3.33e-02 head_fair
6089433202_f 738.50 3.33e-02 head_fair
3088542001_f 835.00 3.33e-02 head_fair
9088502901_f 782.00 3.33e-02 head_fair
0088503201_f 805.00 3.33e-02 head_fair
4089455101_f 675.00 3.33e-02 head_fair
6088522101_f 845.00 3.33e-02 head_fair
8089193601_f 939.37 3.33e-02 head_fair
3089431801_f 730.00 3.33e-02 head_fair
7089024201_f 784.00 3.33e-02 head_fair
8088524801_f 834.00 3.33e-02 head_fair
7088510901_f 845.00 3.33e-02 head_fair
7089033901_f 892.00 3.33e-02 head_fair
8089013801_f 867.00 3.33e-02 head_fair
2088504201_f 797.00 3.33e-02 head_fair
6089375701_f 855.00 3.33e-02 head_fair
8089212401_f 949.00 3.33e-02 head_fair
8089365901_f 849.82 3.33e-02 head_fair
9089424401_f 732.00 3.33e-02 head_fair
2089122401_f 922.00 3.33e-02 head_fair
6089192301_f 932.00 3.33e-02 head_fair
7089434801_f 742.00 3.33e-02 head_fair
9089064401_f 915.00 3.33e-02 head_fair
2089433701_f 728.00 3.33e-02 head_fair
7550892257_f 950.00 3.33e-02 head_fair
6089163801_f 938.00 3.33e-02 head_fair
6089472301_f 694.00 3.33e-02 head_fair
7089045101_f 910.00 3.33e-02 head_fair
9089312101_f 875.00 3.33e-02 head_fair
0088484701_f 805.00 3.33e-02 head_fair
0089171301_f 990.00 3.33e-02 head_fair
2089275001_f 915.00 3.33e-02 head_fair
4088591401_f 813.00 3.33e-02 head_fair
4089193201_f 947.13 3.33e-02 head_fair
2088590801_f 801.00 3.33e-02 head_fair
4089072801_f 907.00 3.33e-02 head_fair
6089204901_f 945.00 3.33e-02 head_fair
0089261901_f 935.00 3.33e-02 head_fair
5089151201_f 931.00 3.33e-02 head_fair
6089384601_f 828.00 3.33e-02 head_fair
7089402101_f 870.00 3.33e-02 head_fair
8089292001_f 878.00 3.33e-02 head_fair
9088564601_f 798.00 3.33e-02 head_fair
9089320201_f 830.00 3.33e-02 head_fair
9089380401_f 825.00 3.33e-02 head_fair
2089292701_f 860.00 3.33e-02 head_fair
2089391701_f 827.00 3.33e-02 head_fair
3089241301_f 938.00 3.33e-02 head_fair
8330892952_f 866.00 3.33e-02 head_fair
8089180201_f 945.00 3.33e-02 head_fair
1089094801_f 920.00 3.33e-02 head_fair
7089310601_f 785.00 3.33e-02 head_fair
9089073901_f 953.00 3.33e-02 head_fair
9089311002_f 825.00 3.33e-02 head_fair
0088473101_f 788.00 3.33e-02 head_fair
1089082501_f 950.00 3.33e-02 head_fair
3088473301_f 784.00 3.33e-02 head_fair
3089415801_f 780.00 3.33e-02 head_fair
4089030001_f 821.00 3.33e-02 head_fair
7089425501_f 745.00 3.33e-02 head_fair
6089120601_f 920.00 3.33e-02 head_fair
1088581401_f 816.00 3.33e-02 head_fair
7088473801_f 784.00 3.33e-02 head_fair
8088484501_f 793.00 3.33e-02 head_fair
9089121001_f 920.00 3.33e-02 head_fair
1088555501_f 763.00 3.33e-02 head_fair
1089305601_f 815.00 3.33e-02 head_fair
4089202501_f 943.00 3.33e-02 head_fair
5089002701_f 824.00 3.33e-02 head_fair
7088495501_f 795.00 3.33e-02 head_fair
7089193501_f 972.00 3.33e-02 head_fair
7089235101_f 936.00 3.33e-02 head_fair
9089101301_f 913.00 3.33e-02 head_fair
9089120101_f 924.00 3.33e-02 head_fair
1089194101_f 966.00 3.33e-02 head_fair
2088495201_f 790.00 3.33e-02 head_fair
2088583801_f 820.00 3.33e-02 head_fair
2089193601_f 984.00 3.33e-02 head_fair
3088593201_f 823.00 3.33e-02 head_fair
6089075001_f 918.00 3.33e-02 head_fair
7088495001_f 820.00 3.33e-02 head_fair
8088570901_f 826.00 3.33e-02 head_fair
8089102401_f 909.00 3.33e-02 head_fair
9089462201_f 767.59 3.33e-02 head_fair
1088572101_f 820.00 3.33e-02 head_fair
1089342401_f 785.00 3.33e-02 head_fair
2088521401_f 825.00 3.33e-02 head_fair
9440885032_f 817.00 3.33e-02 head_fair
4089382301_f 805.00 3.33e-02 head_fair
7088482101_f 803.00 3.33e-02 head_fair
7088494801_f 795.00 3.33e-02 head_fair
0089303701_f 837.00 3.33e-02 head_fair
2089304701_f 833.00 3.33e-02 head_fair
3088564501_f 816.00 3.33e-02 head_fair
3089182601_f 952.00 3.33e-02 head_fair
6089182901_f 965.00 3.33e-02 head_fair
0088563601_f 796.93 3.33e-02 head_fair
0000891613_f 985.00 3.33e-02 head_fair
0089272701_f 885.00 3.33e-02 head_fair
0089274301_f 870.00 3.33e-02 head_fair
0089400001_f 750.00 3.33e-02 head_fair
0089450001_f 795.89 3.33e-02 head_fair
4089140301_f 953.92 3.33e-02 head_fair
5089222201_f 935.00 3.33e-02 head_fair
5089223301_f 946.00 3.33e-02 head_fair
6088533501_f 808.00 3.33e-02 head_fair
7089001501_f 822.00 3.33e-02 head_fair
9089330401_f 810.00 3.33e-02 head_fair
0088491001_f 814.00 3.33e-02 head_fair
8089244601_f 895.00 3.33e-02 head_fair
0089004401_f 841.00 3.33e-02 head_fair
1089224701_f 938.00 3.33e-02 head_fair
1089224702_f 939.00 3.33e-02 head_fair
3088500601_f 807.00 3.33e-02 head_fair
6089363601_f 805.00 3.33e-02 head_fair
7088572001_f 805.00 3.33e-02 head_fair
2088551501_f 825.00 3.33e-02 head_fair
5088542301_f 814.00 3.33e-02 head_fair
7088564801_f 833.00 3.33e-02 head_fair
0089285601_f 875.00 3.33e-02 head_fair
6088594401_f 828.00 3.33e-02 head_fair
9089000201_f 829.00 3.33e-02 head_fair
0088572501_f 827.00 3.33e-02 head_fair
1089155001_f 975.00 3.33e-02 head_fair
2088500501_f 808.00 3.33e-02 head_fair
2088544001_f 831.00 3.33e-02 head_fair
2089285101_f 860.00 3.33e-02 head_fair
3088561601_f 821.00 3.33e-02 head_fair
7089314901_f 805.00 3.33e-02 head_fair
8089381201_f 760.00 3.33e-02 head_fair
0088505101_f 750.00 3.33e-02 head_fair
1089362701_f 695.00 3.33e-02 head_fair
4088475301_f 808.00 3.33e-02 head_fair
4089264301_f 935.00 3.33e-02 head_fair
5089385101_f 760.00 3.33e-02 head_fair
8088594901_f 815.00 3.33e-02 head_fair
1089270801_f 882.00 3.33e-02 head_fair
2089340201_f 788.00 3.33e-02 head_fair
3088490801_f 806.00 3.33e-02 head_fair
4089095301_f 904.00 3.33e-02 head_fair
4089095401_f 940.00 3.33e-02 head_fair
5088505001_f 816.00 3.33e-02 head_fair
9088562901_f 847.00 3.33e-02 head_fair
9089373501_f 784.00 3.33e-02 head_fair
1089394601_f 760.00 3.33e-02 head_fair
7089402201_f 770.00 3.33e-02 head_fair
0088522201_f 827.00 3.33e-02 head_fair
0089344201_f 773.00 3.33e-02 head_fair
1320893440_f 776.00 3.33e-02 head_fair
4089331701_f 785.00 3.33e-02 head_fair
7089351101_f 774.00 3.33e-02 head_fair
4089155801_f 954.00 3.33e-02 head_fair
4089230601_f 879.00 3.33e-02 head_fair
5089342401_f 772.00 3.33e-02 head_fair
1490890035_f 838.00 3.33e-02 head_fair
2089024501_f 856.00 3.33e-02 head_fair
4088530201_f 838.00 3.33e-02 head_fair
4088581401_f 880.00 3.33e-02 head_fair
4089085101_f 916.00 3.33e-02 head_fair
4089274901_f 845.00 3.33e-02 head_fair
5089241001_f 890.00 3.33e-02 head_fair
8088581401_f 867.00 3.33e-02 head_fair
8089275401_f 855.00 3.33e-02 head_fair
0089250001_f 860.00 3.33e-02 head_fair
1089263301_f 895.00 3.33e-02 head_fair
4089342801_f 766.00 3.33e-02 head_fair
5089143801_f 946.00 3.33e-02 head_fair
7088474501_f 808.00 3.33e-02 head_fair
7089303501_f 772.00 3.33e-02 head_fair
7089314501_f 780.00 3.33e-02 head_fair
8088500001_f 815.00 3.33e-02 head_fair
3089313701_f 773.00 3.33e-02 head_fair
5089055201_f 885.00 3.33e-02 head_fair
5089315201_f 790.00 3.33e-02 head_fair
7089002501_f 828.00 3.33e-02 head_fair
9089021001_f 839.00 3.33e-02 head_fair
9089322701_f 792.00 3.33e-02 head_fair
9089322702_f 792.00 3.33e-02 head_fair
1089084301_f 915.00 3.33e-02 head_fair
3089372601_f 779.00 3.33e-02 head_fair
6089100401_f 953.00 3.33e-02 head_fair
6089274201_f 828.00 3.33e-02 head_fair
2089024001_f 872.00 3.33e-02 head_fair
5089083401_f 920.00 3.33e-02 head_fair
3088544101_f 810.00 3.33e-02 head_fair
3089023701_f 858.00 3.33e-02 head_fair
5089242701_f 859.00 3.33e-02 head_fair
6089330402_f 772.00 3.33e-02 head_fair
1089245201_f 806.00 3.33e-02 head_fair
2089252601_f 805.00 3.33e-02 head_fair
2089273701_f 820.00 3.33e-02 head_fair
5089032501_f 852.00 3.33e-02 head_fair
8088553201_f 836.00 3.33e-02 head_fair
8089173901_f 945.00 3.33e-02 head_fair
4089322601_f 780.00 3.33e-02 head_fair
6089024401_f 862.50 3.33e-02 head_fair
8089241701_f 805.00 3.33e-02 head_fair
9088551201_f 833.00 3.33e-02 head_fair
9089261101_f 805.00 3.33e-02 head_fair
4089274701_f 800.00 3.33e-02 head_fair
5089052801_f 870.00 3.33e-02 head_fair
5089294301_f 780.00 3.33e-02 head_fair
3150892947_f 806.00 3.33e-02 head_fair
5089322401_f 787.00 3.33e-02 head_fair
3160893210_f 758.00 3.33e-02 head_fair
7089354701_f 755.00 3.33e-02 head_fair
8089203101_f 980.00 3.33e-02 head_fair
8089323101_f 777.00 3.33e-02 head_fair
9089203101_f 925.00 3.33e-02 head_fair
1089104601_f 933.00 3.33e-02 head_fair
1089195401_f 910.00 3.33e-02 head_fair
4088574001_f 872.00 3.33e-02 head_fair
6089195601_f 945.00 3.33e-02 head_fair
6089315001_f 775.00 3.33e-02 head_fair
6089315701_f 780.00 3.33e-02 head_fair
8089192701_f 945.00 3.33e-02 head_fair
9089350401_f 789.00 3.33e-02 head_fair
2089234301_f 851.00 3.33e-02 head_fair
4088515701_f 797.00 3.33e-02 head_fair
5088564001_f 880.00 3.33e-02 head_fair
5089231801_f 827.00 3.33e-02 head_fair
7089274201_f 802.00 3.33e-02 head_fair
8089223801_f 890.00 3.33e-02 head_fair
9088485901_f 802.00 3.33e-02 head_fair
1088504901_f 814.00 3.33e-02 head_fair
3088532401_f 813.00 3.33e-02 head_fair
3088533101_f 814.00 3.33e-02 head_fair
5089020701_f 854.00 3.33e-02 head_fair
7088572901_f 855.00 3.33e-02 head_fair
3520893440_f 825.00 3.33e-02 head_fair
3089023001_f 842.00 3.33e-02 head_fair
4089323101_f 781.00 3.33e-02 head_fair
5089344301_f 742.00 3.33e-02 head_fair
9089160001_f 935.00 3.33e-02 head_fair
0089430001_f 944.47 3.33e-02 head_fair
3089320601_f 797.00 3.33e-02 head_fair
4089313501_f 804.00 3.33e-02 head_fair
6088591601_f 855.00 3.33e-02 head_fair
4090892223_f 866.42 3.33e-02 head_fair
1089240401_f 823.00 3.33e-02 head_fair
1089240402_f 810.00 3.33e-02 head_fair
1089323001_f 760.00 3.33e-02 head_fair
3089313401_f 670.00 3.33e-02 head_fair
4089323301_f 785.00 3.33e-02 head_fair
7089172601_f 940.00 3.33e-02 head_fair
9089163701_f 941.00 3.33e-02 head_fair
9089210001_f 884.00 3.33e-02 head_fair
0089270801_f 799.00 3.33e-02 head_fair
0089310301_f 765.00 3.33e-02 head_fair
2089214601_f 825.00 3.33e-02 head_fair
5089164301_f 943.00 3.33e-02 head_fair
7088505901_f 835.00 3.33e-02 head_fair
7088511701_f 835.00 3.33e-02 head_fair
7088584501_f 868.00 3.33e-02 head_fair