pcf
* control data
restart estimation
     597    4599       5       0      12
6  3  double  point  1  0  0
2.000000e+001  -3.000000e+000  3.000000e-001  1.000000e-002  10 999 lamforgive
0.1  1.000000e+001  1.000000e-003
1.000000e-001 noaui
0  1.000000e-003  3  3  1.000000e-002  3
0 0 0 REISAVEITN PARSAVEITN
* singular value decomposition
 1
 1  5.000000e-007
 1
* parameter groups
Kp     relative   1.000000e-002  0.000000e+000  switch  2.000000e+000  parabolic
Kz     relative   1.000000e-002  0.000000e+000  switch  2.000000e+000  parabolic
Rech relative 1.00E-02 0.00E+00 switch 2.00E+00 parabolic
SFR_cond relative 1.00E-02 0 switch 2 parabolic
SFR_offset relative 1.00E-02 0 switch 2 parabolic
* parameter data
SFRoff  none  factor  3.00   1.00e-10    20    SFR_offset  -1  0  1
kpkpx_tc2	fixed	factor	1.854068	1.00E-10	1.00E+10	kp	1	0	1
kpkpx_tc3	fixed	factor	1.22871	1.00E-10	1.00E+10	kp	1	0	1
kpkpx_tc4	fixed	factor	3.090327	1.00E-10	1.00E+10	kp	1	0	1
kpkpx_tc7	fixed	factor	1.595373	1.00E-10	1.00E+10	kp	1	0	1
kpkpx_tc8	fixed	factor	1.185912	1.00E-10	1.00E+10	kp	1	0	1
kpkpx_tc9	fixed	factor	0.9224152	1.00E-10	1.00E+10	kp	1	0	1
kpkpx_tc10	fixed	factor	4.921274	1.00E-10	1.00E+10	kp	1	0	1
kpkpx_tc11	fixed	factor	2.441553	1.00E-10	1.00E+10	kp	1	0	1
kpkpx_tc12	fixed	factor	2.161216	1.00E-10	1.00E+10	kp	1	0	1
kpkpx_tc13	fixed	factor	13.54	1.00E-10	1.00E+10	kp	1	0	1
kpkpx_tc14	fixed	factor	7.01159	1.00E-10	1.00E+10	kp	1	0	1
kpkpx_tc15	fixed	factor	5.539525	1.00E-10	1.00E+10	kp	1	0	1
kpkpx_tc16	fixed	factor	1.565624	1.00E-10	1.00E+10	kp	1	0	1
kpkpx_tc17	fixed	factor	6.742812	1.00E-10	1.00E+10	kp	1	0	1
kpkpx_tc18	fixed	factor	6.932887	1.00E-10	1.00E+10	kp	1	0	1
kpkpx_tc19	fixed	factor	3.469921	1.00E-10	1.00E+10	kp	1	0	1
kpkpx_tc20	fixed	factor	1.114421	1.00E-10	1.00E+10	kp	1	0	1
kpkpx_tc21	fixed	factor	1.19682	1.00E-10	1.00E+10	kp	1	0	1
kpkpx_tc22	fixed	factor	10.34655	1.00E-10	1.00E+10	kp	1	0	1
kpkpx_tc23	fixed	factor	9.970344	1.00E-10	1.00E+10	kp	1	0	1
kpkpx_tc24	fixed	factor	1.605289	1.00E-10	1.00E+10	kp	1	0	1
kpkpx_tc25	fixed	factor	9.640682	1.00E-10	1.00E+10	kp	1	0	1
kpkpx_tc27	fixed	factor	0.43	1.00E-10	1.00E+10	kp	1	0	1
kpkpx_tc28	fixed	factor	6.96685	1.00E-10	1.00E+10	kp	1	0	1
kpkpx_tc29	fixed	factor	2.481727	1.00E-10	1.00E+10	kp	1	0	1
kpkpx_tc30	fixed	factor	4.021998	1.00E-10	1.00E+10	kp	1	0	1
kpkpx_tc31	fixed	factor	4.087647	1.00E-10	1.00E+10	kp	1	0	1
kpkpx_tc32	fixed	factor	3.032908	1.00E-10	1.00E+10	kp	1	0	1
kpkpx_tc33	fixed	factor	1.553613	1.00E-10	1.00E+10	kp	1	0	1
kpkpx_tc34	fixed	factor	1.542729	1.00E-10	1.00E+10	kp	1	0	1
kpkpx_tc35	fixed	factor	0.43	1.00E-10	1.00E+10	kp	1	0	1
kpkpx_tc36	fixed	factor	11.10621	1.00E-10	1.00E+10	kp	1	0	1
kpkpx_tc37	fixed	factor	2.604395	1.00E-10	1.00E+10	kp	1	0	1
kpkpx_tc38	fixed	factor	2.988638	1.00E-10	1.00E+10	kp	1	0	1
kpkpx_tc39	fixed	factor	3.921696	1.00E-10	1.00E+10	kp	1	0	1
kpkpx_tc40	fixed	factor	0.9236299	1.00E-10	1.00E+10	kp	1	0	1
kpkpx_tc41	fixed	factor	4.702724	1.00E-10	1.00E+10	kp	1	0	1
kpkpx_tc42	fixed	factor	1.571892	1.00E-10	1.00E+10	kp	1	0	1
kpkpx_tc43	fixed	factor	2.082519	1.00E-10	1.00E+10	kp	1	0	1
kpkpx_tc44	fixed	factor	2.49386	1.00E-10	1.00E+10	kp	1	0	1
kpkpx_tc45	fixed	factor	1.627988	1.00E-10	1.00E+10	kp	1	0	1
kpkpx_tc46	fixed	factor	2.283588	1.00E-10	1.00E+10	kp	1	0	1
kpkpx_tc47	fixed	factor	1.633009	1.00E-10	1.00E+10	kp	1	0	1
kpkpx_tc48	fixed	factor	3.071327	1.00E-10	1.00E+10	kp	1	0	1
kpkpx_tc49	fixed	factor	0.43	1.00E-10	1.00E+10	kp	1	0	1
kpkpx_tc50	fixed	factor	2.948142	1.00E-10	1.00E+10	kp	1	0	1
kpkpx_tc52	fixed	factor	6.273091	1.00E-10	1.00E+10	kp	1	0	1
kpkpx_tc53	fixed	factor	1.581757	1.00E-10	1.00E+10	kp	1	0	1
kpkpx_tc54	fixed	factor	2.615275	1.00E-10	1.00E+10	kp	1	0	1
kpkpx_tc55	fixed	factor	1.770451	1.00E-10	1.00E+10	kp	1	0	1
kpkpx_tc56	fixed	factor	1.588614	1.00E-10	1.00E+10	kp	1	0	1
kpkpx_tc57	fixed	factor	3.614601	1.00E-10	1.00E+10	kp	1	0	1
kpkpx_tc58	fixed	factor	1.141316	1.00E-10	1.00E+10	kp	1	0	1
kpkpx_tc59	fixed	factor	3.421521	1.00E-10	1.00E+10	kp	1	0	1
kpkpx_ec1	fixed	factor	12.49433	1.00E-10	1.00E+10	kp	1	0	1
kpkpx_ec2	fixed	factor	7.836456	1.00E-10	1.00E+10	kp	1	0	1
kpkpx_ec4	fixed	factor	15.02827	1.00E-10	1.00E+10	kp	1	0	1
kpkpx_ec5	fixed	factor	8.157739	1.00E-10	1.00E+10	kp	1	0	1
kpkpx_ec7	fixed	factor	9.156688	1.00E-10	1.00E+10	kp	1	0	1
kpkpx_ec8	fixed	factor	4.70053	1.00E-10	1.00E+10	kp	1	0	1
kpkpx_ec9	fixed	factor	8.092796	1.00E-10	1.00E+10	kp	1	0	1
kpkpx_ec10	fixed	factor	10.94708	1.00E-10	1.00E+10	kp	1	0	1
kpkpx_ec11	fixed	factor	6.406784	1.00E-10	1.00E+10	kp	1	0	1
kpkpx_ec13	fixed	factor	9.038432	1.00E-10	1.00E+10	kp	1	0	1
kpkpx_ec14	fixed	factor	8.652956	1.00E-10	1.00E+10	kp	1	0	1
kpkpx_ec15	fixed	factor	5.829502	1.00E-10	1.00E+10	kp	1	0	1
kpkpx_ec16	fixed	factor	7.569976	1.00E-10	1.00E+10	kp	1	0	1
kpkpx_ec17	fixed	factor	8.5296	1.00E-10	1.00E+10	kp	1	0	1
kpkpx_ec18	fixed	factor	9.452993	1.00E-10	1.00E+10	kp	1	0	1
kpkpx_ww1	fixed	factor	2.776245	1.00E-10	1.00E+10	kp	1	0	1
kpkpx_ww2	fixed	factor	6.247531	1.00E-10	1.00E+10	kp	1	0	1
kpkpx_ww3	fixed	factor	5.564919	1.00E-10	1.00E+10	kp	1	0	1
kpkpx_ww4	fixed	factor	6.491142	1.00E-10	1.00E+10	kp	1	0	1
kpkpx_ww5	fixed	factor	2.720635	1.00E-10	1.00E+10	kp	1	0	1
kpkpx_ww6	fixed	factor	1.639958	1.00E-10	1.00E+10	kp	1	0	1
kpkpx_ww7	fixed	factor	1.789446	1.00E-10	1.00E+10	kp	1	0	1
kpkpx_ww8	fixed	factor	13.89607	1.00E-10	1.00E+10	kp	1	0	1
kpkpx_ww9	fixed	factor	4.756831	1.00E-10	1.00E+10	kp	1	0	1
kpkpx_ww10	fixed	factor	1.991752	1.00E-10	1.00E+10	kp	1	0	1
kpkpx_ww11	fixed	factor	70.33008	1.00E-10	1.00E+10	kp	1	0	1
kpkpx_ww12	fixed	factor	0.4933917	1.00E-10	1.00E+10	kp	1	0	1
kpkpx_ww13	fixed	factor	6.864311	1.00E-10	1.00E+10	kp	1	0	1
kpkpx_ww14	fixed	factor	4.951662	1.00E-10	1.00E+10	kp	1	0	1
kpkpx_ww15	fixed	factor	3.182324	1.00E-10	1.00E+10	kp	1	0	1
kpkpx_ww16	fixed	factor	4.717775	1.00E-10	1.00E+10	kp	1	0	1
kpkpx_ww17	fixed	factor	2.094816	1.00E-10	1.00E+10	kp	1	0	1
kpkpx_ww18	fixed	factor	9.799789	1.00E-10	1.00E+10	kp	1	0	1
kpkpx_ww19	fixed	factor	98.33	1.00E-10	1.00E+10	kp	1	0	1
kpkpx_ww20	fixed	factor	43.04274	1.00E-10	1.00E+10	kp	1	0	1
kpkpx_ww21	fixed	factor	2.00169	1.00E-10	1.00E+10	kp	1	0	1
kpkpx_ww22	fixed	factor	3.156908	1.00E-10	1.00E+10	kp	1	0	1
kpkpx_ww23	fixed	factor	2.135093	1.00E-10	1.00E+10	kp	1	0	1
kpkpx_ww24	fixed	factor	9.018853	1.00E-10	1.00E+10	kp	1	0	1
kpkpx_ww25	fixed	factor	1.436851	1.00E-10	1.00E+10	kp	1	0	1
kpkpx_ww26	fixed	factor	10.33971	1.00E-10	1.00E+10	kp	1	0	1
kpkpx_ww27	fixed	factor	14.97979	1.00E-10	1.00E+10	kp	1	0	1
kpkpx_ww28	fixed	factor	4.929759	1.00E-10	1.00E+10	kp	1	0	1
kpkpx_ww29	fixed	factor	7.474565	1.00E-10	1.00E+10	kp	1	0	1
kpkpx_ww30	fixed	factor	8.680481	1.00E-10	1.00E+10	kp	1	0	1
kpkpx_ww31	fixed	factor	2.543568	1.00E-10	1.00E+10	kp	1	0	1
kpkpx_ww32	fixed	factor	19.07681	1.00E-10	1.00E+10	kp	1	0	1
kpkpx_ww33	fixed	factor	7.653464	1.00E-10	1.00E+10	kp	1	0	1
kpkpx_ww34	fixed	factor	60.24307	1.00E-10	1.00E+10	kp	1	0	1
kpkpx_ww35	fixed	factor	4.730025	1.00E-10	1.00E+10	kp	1	0	1
kpkpx_ww36	fixed	factor	2.782929	1.00E-10	1.00E+10	kp	1	0	1
kpkpx_ww37	fixed	factor	41.20261	1.00E-10	1.00E+10	kp	1	0	1
kpkpx_ww38	fixed	factor	29.62514	1.00E-10	1.00E+10	kp	1	0	1
kpkpx_ww39	fixed	factor	1.331855	1.00E-10	1.00E+10	kp	1	0	1
kpkpx_ww40	fixed	factor	7.863341	1.00E-10	1.00E+10	kp	1	0	1
kpkpx_ww41	fixed	factor	5.577481	1.00E-10	1.00E+10	kp	1	0	1
kpkpx_ww42	fixed	factor	2.327516	1.00E-10	1.00E+10	kp	1	0	1
kpkpx_ww43	fixed	factor	4.538242	1.00E-10	1.00E+10	kp	1	0	1
kpkpx_ww44	fixed	factor	0.6269214	1.00E-10	1.00E+10	kp	1	0	1
kpkpx_ww45	fixed	factor	3.753014	1.00E-10	1.00E+10	kp	1	0	1
kpkpx_ww46	fixed	factor	9.381067	1.00E-10	1.00E+10	kp	1	0	1
kpkpx_ww47	fixed	factor	5.192276	1.00E-10	1.00E+10	kp	1	0	1
kpkpx_ww48	fixed	factor	14.51484	1.00E-10	1.00E+10	kp	1	0	1
kpkpx_ww49	fixed	factor	8.307858	1.00E-10	1.00E+10	kp	1	0	1
kpkpx_ww50	fixed	factor	5.035342	1.00E-10	1.00E+10	kp	1	0	1
kpkpx_ww51	fixed	factor	0.727089	1.00E-10	1.00E+10	kp	1	0	1
kpkpx_ww52	fixed	factor	7.969014	1.00E-10	1.00E+10	kp	1	0	1
kpkpx_ww53	fixed	factor	3.020557	1.00E-10	1.00E+10	kp	1	0	1
kpkpx_ww54	fixed	factor	7.042434	1.00E-10	1.00E+10	kp	1	0	1
kpkpx_ww55	fixed	factor	4.849943	1.00E-10	1.00E+10	kp	1	0	1
kpkpx_ww56	fixed	factor	6.170823	1.00E-10	1.00E+10	kp	1	0	1
kpkpx_ww57	fixed	factor	65.8465	1.00E-10	1.00E+10	kp	1	0	1
kpkpx_ww58	fixed	factor	98.33	1.00E-10	1.00E+10	kp	1	0	1
kpkpx_ww59	fixed	factor	47.23686	1.00E-10	1.00E+10	kp	1	0	1
kpkpx_ww60	fixed	factor	39.69582	1.00E-10	1.00E+10	kp	1	0	1
kpkpx_ww61	fixed	factor	0.487124	1.00E-10	1.00E+10	kp	1	0	1
kpkpx_ww62	fixed	factor	0.5485945	1.00E-10	1.00E+10	kp	1	0	1
kpkpx_ww63	fixed	factor	8.119247	1.00E-10	1.00E+10	kp	1	0	1
kpkpx_ww64	fixed	factor	5.070395	1.00E-10	1.00E+10	kp	1	0	1
kpkpx_ww65	fixed	factor	3.674778	1.00E-10	1.00E+10	kp	1	0	1
kpkpx_ww66	fixed	factor	11.92584	1.00E-10	1.00E+10	kp	1	0	1
kpkpx_ww67	fixed	factor	1.936084	1.00E-10	1.00E+10	kp	1	0	1
kpkpx_ww68	fixed	factor	10.47874	1.00E-10	1.00E+10	kp	1	0	1
kpkpx_ww69	fixed	factor	9.257421	1.00E-10	1.00E+10	kp	1	0	1
kpkpx_ww70	fixed	factor	4.687927	1.00E-10	1.00E+10	kp	1	0	1
kpkpx_ww71	fixed	factor	1.981709	1.00E-10	1.00E+10	kp	1	0	1
kpkpx_ww72	fixed	factor	2.877885	1.00E-10	1.00E+10	kp	1	0	1
kpkpx_ww73	fixed	factor	17.16758	1.00E-10	1.00E+10	kp	1	0	1
kpkpx_ww74	fixed	factor	23.956	1.00E-10	1.00E+10	kp	1	0	1
kpkpx_ww75	fixed	factor	1.453746	1.00E-10	1.00E+10	kp	1	0	1
kpkpx_ww76	fixed	factor	8.47863	1.00E-10	1.00E+10	kp	1	0	1
kpkpx_ww77	fixed	factor	0.7637902	1.00E-10	1.00E+10	kp	1	0	1
kpkpx_ww78	fixed	factor	24.99541	1.00E-10	1.00E+10	kp	1	0	1
kpkpx_ww79	fixed	factor	2.063368	1.00E-10	1.00E+10	kp	1	0	1
kpkpx_ww80	fixed	factor	2.849725	1.00E-10	1.00E+10	kp	1	0	1
kpkpx_ww81	fixed	factor	9.514347	1.00E-10	1.00E+10	kp	1	0	1
kpkpx_ww82	fixed	factor	3.192369	1.00E-10	1.00E+10	kp	1	0	1
kpkpx_ww83	fixed	factor	4.153175	1.00E-10	1.00E+10	kp	1	0	1
kpkpx_ww84	fixed	factor	32.50096	1.00E-10	1.00E+10	kp	1	0	1
kpkpx_ww85	fixed	factor	2.579262	1.00E-10	1.00E+10	kp	1	0	1
kpkpx_ww86	fixed	factor	1.988776	1.00E-10	1.00E+10	kp	1	0	1
kpkpx_ww87	fixed	factor	98.33	1.00E-10	1.00E+10	kp	1	0	1
kpkpx_ww88	fixed	factor	5.323907	1.00E-10	1.00E+10	kp	1	0	1
kpkpx_ww89	fixed	factor	4.982741	1.00E-10	1.00E+10	kp	1	0	1
kpkpx_ww90	fixed	factor	3.911829	1.00E-10	1.00E+10	kp	1	0	1
kpkpx_ww91	fixed	factor	4.671112	1.00E-10	1.00E+10	kp	1	0	1
kpkpx_ww92	fixed	factor	1.35659	1.00E-10	1.00E+10	kp	1	0	1
kpkpx_ww93	fixed	factor	6.043867	1.00E-10	1.00E+10	kp	1	0	1
kpkpx_ww94	fixed	factor	4.638357	1.00E-10	1.00E+10	kp	1	0	1
kpkpx_ww95	fixed	factor	4.254203	1.00E-10	1.00E+10	kp	1	0	1
kpkpx_ww96	fixed	factor	3.149409	1.00E-10	1.00E+10	kp	1	0	1
kpkpx_ww97	fixed	factor	4.035569	1.00E-10	1.00E+10	kp	1	0	1
kpkpx_ww98	fixed	factor	4.338866	1.00E-10	1.00E+10	kp	1	0	1
kpkpx_ww99	fixed	factor	2.614589	1.00E-10	1.00E+10	kp	1	0	1
kpkpx_ms1	fixed	factor	16.79466	1.00E-10	1.00E+10	kp	1	0	1
kpkpx_ms2	fixed	factor	15.25742	1.00E-10	1.00E+10	kp	1	0	1
kpkpx_ms3	fixed	factor	8.712922	1.00E-10	1.00E+10	kp	1	0	1
kpkpx_ms4	fixed	factor	20.82337	1.00E-10	1.00E+10	kp	1	0	1
kpkpx_ms5	fixed	factor	4.014781	1.00E-10	1.00E+10	kp	1	0	1
kpkpx_ms6	fixed	factor	19.4639	1.00E-10	1.00E+10	kp	1	0	1
kpkpx_ms7	fixed	factor	7.502474	1.00E-10	1.00E+10	kp	1	0	1
kpkpx_ms8	fixed	factor	2.630377	1.00E-10	1.00E+10	kp	1	0	1
kpkpx_ms9	fixed	factor	11.97981	1.00E-10	1.00E+10	kp	1	0	1
kpkpx_ms10	fixed	factor	3.439641	1.00E-10	1.00E+10	kp	1	0	1
kpkpx_ms11	fixed	factor	1.200424	1.00E-10	1.00E+10	kp	1	0	1
kpkpx_ms12	fixed	factor	56.60089	1.00E-10	1.00E+10	kp	1	0	1
kpkpx_ms13	fixed	factor	6.273928	1.00E-10	1.00E+10	kp	1	0	1
kpkpx_ms14	fixed	factor	2.210425	1.00E-10	1.00E+10	kp	1	0	1
kpkpx_ms15	fixed	factor	9.79897	1.00E-10	1.00E+10	kp	1	0	1
kpkpx_ms16	fixed	factor	32.56255	1.00E-10	1.00E+10	kp	1	0	1
kpkpx_ms17	fixed	factor	7.299007	1.00E-10	1.00E+10	kp	1	0	1
kpkpx_ms18	fixed	factor	23.74351	1.00E-10	1.00E+10	kp	1	0	1
kpkpx_ms19	fixed	factor	73.06	1.00E-10	1.00E+10	kp	1	0	1
kpkpx_ms20	fixed	factor	2.361313	1.00E-10	1.00E+10	kp	1	0	1
kpkpx_ms21	fixed	factor	0.988037	1.00E-10	1.00E+10	kp	1	0	1
kpkpx_ms22	fixed	factor	2.213071	1.00E-10	1.00E+10	kp	1	0	1
kpkpx_ms23	fixed	factor	73.06	1.00E-10	1.00E+10	kp	1	0	1
kpkpx_ms24	fixed	factor	73.06	1.00E-10	1.00E+10	kp	1	0	1
kpkpx_ms25	fixed	factor	3.997629	1.00E-10	1.00E+10	kp	1	0	1
kpkpx_ms26	fixed	factor	73.06	1.00E-10	1.00E+10	kp	1	0	1
kpkpx_ms27	fixed	factor	16.21433	1.00E-10	1.00E+10	kp	1	0	1
kpkpx_ms28	fixed	factor	4.634553	1.00E-10	1.00E+10	kp	1	0	1
kpkpx_ms29	fixed	factor	13.21572	1.00E-10	1.00E+10	kp	1	0	1
kpkpx_ms30	fixed	factor	18.52694	1.00E-10	1.00E+10	kp	1	0	1
kpkpx_ms31	fixed	factor	3.093161	1.00E-10	1.00E+10	kp	1	0	1
kpkpx_ms32	fixed	factor	4.535369	1.00E-10	1.00E+10	kp	1	0	1
kpkpx_ms33	fixed	factor	0.9490893	1.00E-10	1.00E+10	kp	1	0	1
kpkpx_ms34	fixed	factor	17.46503	1.00E-10	1.00E+10	kp	1	0	1
kpkpx_ms35	fixed	factor	1.038357	1.00E-10	1.00E+10	kp	1	0	1
kpkpx_ms36	fixed	factor	1.562341	1.00E-10	1.00E+10	kp	1	0	1
kpkpx_ms37	fixed	factor	0.7186393	1.00E-10	1.00E+10	kp	1	0	1
kpkpx_ms38	fixed	factor	0.8423565	1.00E-10	1.00E+10	kp	1	0	1
kpkpx_ms39	fixed	factor	1.582601	1.00E-10	1.00E+10	kp	1	0	1
kpkpx_ms40	fixed	factor	73.06	1.00E-10	1.00E+10	kp	1	0	1
kpkpx_ms41	fixed	factor	1.929161	1.00E-10	1.00E+10	kp	1	0	1
kpkpx_ms42	fixed	factor	0.400198	1.00E-10	1.00E+10	kp	1	0	1
kpkpx_ms43	fixed	factor	16.33855	1.00E-10	1.00E+10	kp	1	0	1
kpkpx_ms44	fixed	factor	5.490782	1.00E-10	1.00E+10	kp	1	0	1
kpkpx_ms45	fixed	factor	4.344167	1.00E-10	1.00E+10	kp	1	0	1
kpkpx_ms46	fixed	factor	46.21827	1.00E-10	1.00E+10	kp	1	0	1
kpkpx_ms47	fixed	factor	6.148493	1.00E-10	1.00E+10	kp	1	0	1
kpkpx_ms48	fixed	factor	8.181621	1.00E-10	1.00E+10	kp	1	0	1
kpkpx_ms49	fixed	factor	0.32	1.00E-10	1.00E+10	kp	1	0	1
kpkpx_ms50	fixed	factor	5.586519	1.00E-10	1.00E+10	kp	1	0	1
kpkpx_ms51	fixed	factor	73.06	1.00E-10	1.00E+10	kp	1	0	1
kpkpx_ms52	fixed	factor	15.20616	1.00E-10	1.00E+10	kp	1	0	1
kpkpx_ms53	fixed	factor	0.4142233	1.00E-10	1.00E+10	kp	1	0	1
kpkpx_ms54	fixed	factor	16.18132	1.00E-10	1.00E+10	kp	1	0	1
kpkpx_ms55	fixed	factor	73.06	1.00E-10	1.00E+10	kp	1	0	1
kpkpx_ms56	fixed	factor	1.671817	1.00E-10	1.00E+10	kp	1	0	1
kpkpx_ms57	fixed	factor	7.750872	1.00E-10	1.00E+10	kp	1	0	1
kpkpx_ms58	fixed	factor	29.85656	1.00E-10	1.00E+10	kp	1	0	1
kpkpx_ms59	fixed	factor	73.06	1.00E-10	1.00E+10	kp	1	0	1
kpkpx_ms60	fixed	factor	7.609688	1.00E-10	1.00E+10	kp	1	0	1
kpkpx_ms61	fixed	factor	73.06	1.00E-10	1.00E+10	kp	1	0	1
kpkpx_ms62	fixed	factor	0.32	1.00E-10	1.00E+10	kp	1	0	1
kpkpx_ms63	fixed	factor	2.328895	1.00E-10	1.00E+10	kp	1	0	1
kpkpx_ms64	fixed	factor	73.06	1.00E-10	1.00E+10	kp	1	0	1
kpkpx_ms65	fixed	factor	8.186331	1.00E-10	1.00E+10	kp	1	0	1
kpkpx_ms66	fixed	factor	12.58807	1.00E-10	1.00E+10	kp	1	0	1
kpkpx_ms67	fixed	factor	3.88793	1.00E-10	1.00E+10	kp	1	0	1
kpkpx_ms68	fixed	factor	3.639716	1.00E-10	1.00E+10	kp	1	0	1
kpkpx_ms69	fixed	factor	18.07374	1.00E-10	1.00E+10	kp	1	0	1
kpkpx_ms70	fixed	factor	7.077738	1.00E-10	1.00E+10	kp	1	0	1
kpkpx_ms71	fixed	factor	14.74282	1.00E-10	1.00E+10	kp	1	0	1
kpkpx_ms72	fixed	factor	4.06993	1.00E-10	1.00E+10	kp	1	0	1
kpkpx_ms73	fixed	factor	73.06	1.00E-10	1.00E+10	kp	1	0	1
kpkpx_ms74	fixed	factor	25.01349	1.00E-10	1.00E+10	kp	1	0	1
kpkpx_ms75	fixed	factor	6.390389	1.00E-10	1.00E+10	kp	1	0	1
kpkpx_ms76	fixed	factor	8.452654	1.00E-10	1.00E+10	kp	1	0	1
kpkpx_ms77	fixed	factor	5.885521	1.00E-10	1.00E+10	kp	1	0	1
kpkpx_ms78	fixed	factor	4.962138	1.00E-10	1.00E+10	kp	1	0	1
kpkpx_ms79	fixed	factor	5.68	1.00E-10	1.00E+10	kp	1	0	1
kpkpx_ms80	fixed	factor	0.6618708	1.00E-10	1.00E+10	kp	1	0	1
kpkpx_ms81	fixed	factor	5.498969	1.00E-10	1.00E+10	kp	1	0	1
kpkpx_ms82	fixed	factor	5.252221	1.00E-10	1.00E+10	kp	1	0	1
kpkpx_ms83	fixed	factor	6.723354	1.00E-10	1.00E+10	kp	1	0	1
kpkpx_ms84	fixed	factor	60.65393	1.00E-10	1.00E+10	kp	1	0	1
kpkpx_ms85	fixed	factor	3.494488	1.00E-10	1.00E+10	kp	1	0	1
kpkpx_ms86	fixed	factor	3.784295	1.00E-10	1.00E+10	kp	1	0	1
kpkpx_ms87	fixed	factor	10.614	1.00E-10	1.00E+10	kp	1	0	1
kpkpx_ms88	fixed	factor	0.5641426	1.00E-10	1.00E+10	kp	1	0	1
kpkpx_ms89	fixed	factor	1.418572	1.00E-10	1.00E+10	kp	1	0	1
kpkpx_ms90	fixed	factor	1.863604	1.00E-10	1.00E+10	kp	1	0	1
kpkpx_ms91	fixed	factor	47.64037	1.00E-10	1.00E+10	kp	1	0	1
kpkpx_ms92	fixed	factor	15.32653	1.00E-10	1.00E+10	kp	1	0	1
kpkpx_ms93	fixed	factor	14.52552	1.00E-10	1.00E+10	kp	1	0	1
kpkpx_ms94	fixed	factor	3.447227	1.00E-10	1.00E+10	kp	1	0	1
kpkpx_ms95	fixed	factor	64.04982	1.00E-10	1.00E+10	kp	1	0	1
kpkpx_ms96	fixed	factor	1.28675	1.00E-10	1.00E+10	kp	1	0	1
kpkpx_ms97	fixed	factor	59.47205	1.00E-10	1.00E+10	kp	1	0	1
kpkpx_ms98	fixed	factor	10.41616	1.00E-10	1.00E+10	kp	1	0	1
kpkpx_ms99	fixed	factor	19.81095	1.00E-10	1.00E+10	kp	1	0	1
kzkpz_tc2	fixed	factor	5.32E-02	1.00E-10	1.00E+00	kz	1	0	1
kzkpz_tc3	fixed	factor	4.05E-02	1.00E-10	1.00E+00	kz	1	0	1
kzkpz_tc4	fixed	factor	8.06E-02	1.00E-10	1.00E+00	kz	1	0	1
kzkpz_tc7	fixed	factor	8.57E-02	1.00E-10	1.00E+00	kz	1	0	1
kzkpz_tc8	fixed	factor	9.41E-02	1.00E-10	1.00E+00	kz	1	0	1
kzkpz_tc9	fixed	factor	5.51E-02	1.00E-10	1.00E+00	kz	1	0	1
kzkpz_tc10	fixed	factor	0.2962887	1.00E-10	1.00E+00	kz	1	0	1
kzkpz_tc11	fixed	factor	9.17E-02	1.00E-10	1.00E+00	kz	1	0	1
kzkpz_tc12	fixed	factor	0.2947339	1.00E-10	1.00E+00	kz	1	0	1
kzkpz_tc13	fixed	factor	6.93E-02	1.00E-10	1.00E+00	kz	1	0	1
kzkpz_tc14	fixed	factor	9.54E-02	1.00E-10	1.00E+00	kz	1	0	1
kzkpz_tc15	fixed	factor	7.24E-02	1.00E-10	1.00E+00	kz	1	0	1
kzkpz_tc16	fixed	factor	0.2157183	1.00E-10	1.00E+00	kz	1	0	1
kzkpz_tc17	fixed	factor	0.1359408	1.00E-10	1.00E+00	kz	1	0	1
kzkpz_tc18	fixed	factor	0.1388846	1.00E-10	1.00E+00	kz	1	0	1
kzkpz_tc19	fixed	factor	0.1629149	1.00E-10	1.00E+00	kz	1	0	1
kzkpz_tc20	fixed	factor	9.60E-02	1.00E-10	1.00E+00	kz	1	0	1
kzkpz_tc21	fixed	factor	6.60E-02	1.00E-10	1.00E+00	kz	1	0	1
kzkpz_tc22	fixed	factor	0.2448803	1.00E-10	1.00E+00	kz	1	0	1
kzkpz_tc23	fixed	factor	0.1134397	1.00E-10	1.00E+00	kz	1	0	1
kzkpz_tc24	fixed	factor	0.1795251	1.00E-10	1.00E+00	kz	1	0	1
kzkpz_tc25	fixed	factor	0.2249637	1.00E-10	1.00E+00	kz	1	0	1
kzkpz_tc27	fixed	factor	1.12E-02	1.00E-10	1.00E+00	kz	1	0	1
kzkpz_tc28	fixed	factor	7.85E-02	1.00E-10	1.00E+00	kz	1	0	1
kzkpz_tc29	fixed	factor	0.1215627	1.00E-10	1.00E+00	kz	1	0	1
kzkpz_tc30	fixed	factor	2.22E-02	1.00E-10	1.00E+00	kz	1	0	1
kzkpz_tc31	fixed	factor	0.1711526	1.00E-10	1.00E+00	kz	1	0	1
kzkpz_tc32	fixed	factor	3.71E-02	1.00E-10	1.00E+00	kz	1	0	1
kzkpz_tc33	fixed	factor	5.45E-02	1.00E-10	1.00E+00	kz	1	0	1
kzkpz_tc34	fixed	factor	5.95E-02	1.00E-10	1.00E+00	kz	1	0	1
kzkpz_tc35	fixed	factor	1.12E-02	1.00E-10	1.00E+00	kz	1	0	1
kzkpz_tc36	fixed	factor	0.1142183	1.00E-10	1.00E+00	kz	1	0	1
kzkpz_tc37	fixed	factor	0.103309	1.00E-10	1.00E+00	kz	1	0	1
kzkpz_tc38	fixed	factor	0.2424211	1.00E-10	1.00E+00	kz	1	0	1
kzkpz_tc39	fixed	factor	8.03E-02	1.00E-10	1.00E+00	kz	1	0	1
kzkpz_tc40	fixed	factor	1	1.00E-10	1.00E+00	kz	1	0	1
kzkpz_tc41	fixed	factor	0.1695221	1.00E-10	1.00E+00	kz	1	0	1
kzkpz_tc42	fixed	factor	0.1386115	1.00E-10	1.00E+00	kz	1	0	1
kzkpz_tc43	fixed	factor	7.04E-02	1.00E-10	1.00E+00	kz	1	0	1
kzkpz_tc44	fixed	factor	5.49E-02	1.00E-10	1.00E+00	kz	1	0	1
kzkpz_tc45	fixed	factor	3.06E-02	1.00E-10	1.00E+00	kz	1	0	1
kzkpz_tc46	fixed	factor	8.90E-02	1.00E-10	1.00E+00	kz	1	0	1
kzkpz_tc47	fixed	factor	9.62E-02	1.00E-10	1.00E+00	kz	1	0	1
kzkpz_tc48	fixed	factor	0.1138992	1.00E-10	1.00E+00	kz	1	0	1
kzkpz_tc49	fixed	factor	7.52E-03	1.00E-10	1.00E+00	kz	1	0	1
kzkpz_tc50	fixed	factor	0.1564066	1.00E-10	1.00E+00	kz	1	0	1
kzkpz_tc52	fixed	factor	0.2402318	1.00E-10	1.00E+00	kz	1	0	1
kzkpz_tc53	fixed	factor	0.1657821	1.00E-10	1.00E+00	kz	1	0	1
kzkpz_tc54	fixed	factor	3.57E-02	1.00E-10	1.00E+00	kz	1	0	1
kzkpz_tc55	fixed	factor	4.40E-02	1.00E-10	1.00E+00	kz	1	0	1
kzkpz_tc56	fixed	factor	0.7932872	1.00E-10	1.00E+00	kz	1	0	1
kzkpz_tc57	fixed	factor	9.81E-02	1.00E-10	1.00E+00	kz	1	0	1
kzkpz_tc58	fixed	factor	0.693754	1.00E-10	1.00E+00	kz	1	0	1
kzkpz_tc59	fixed	factor	0.2098572	1.00E-10	1.00E+00	kz	1	0	1
kzkpz_ec1	fixed	factor	9.21E-02	1.00E-10	1.00E+00	kz	1	0	1
kzkpz_ec2	fixed	factor	8.96E-02	1.00E-10	1.00E+00	kz	1	0	1
kzkpz_ec4	fixed	factor	9.11E-02	1.00E-10	1.00E+00	kz	1	0	1
kzkpz_ec5	fixed	factor	7.89E-02	1.00E-10	1.00E+00	kz	1	0	1
kzkpz_ec7	fixed	factor	6.36E-02	1.00E-10	1.00E+00	kz	1	0	1
kzkpz_ec8	fixed	factor	8.92E-02	1.00E-10	1.00E+00	kz	1	0	1
kzkpz_ec9	fixed	factor	0.1249764	1.00E-10	1.00E+00	kz	1	0	1
kzkpz_ec10	fixed	factor	9.23E-02	1.00E-10	1.00E+00	kz	1	0	1
kzkpz_ec11	fixed	factor	7.64E-02	1.00E-10	1.00E+00	kz	1	0	1
kzkpz_ec13	fixed	factor	8.77E-02	1.00E-10	1.00E+00	kz	1	0	1
kzkpz_ec14	fixed	factor	0.1001448	1.00E-10	1.00E+00	kz	1	0	1
kzkpz_ec15	fixed	factor	8.27E-02	1.00E-10	1.00E+00	kz	1	0	1
kzkpz_ec16	fixed	factor	8.74E-02	1.00E-10	1.00E+00	kz	1	0	1
kzkpz_ec17	fixed	factor	9.48E-02	1.00E-10	1.00E+00	kz	1	0	1
kzkpz_ec18	fixed	factor	9.95E-02	1.00E-10	1.00E+00	kz	1	0	1
kzkpz_ww1	fixed	factor	6.45E-02	1.00E-10	1.00E+00	kz	1	0	1
kzkpz_ww2	fixed	factor	5.67E-02	1.00E-10	1.00E+00	kz	1	0	1
kzkpz_ww3	fixed	factor	0.3729249	1.00E-10	1.00E+00	kz	1	0	1
kzkpz_ww4	fixed	factor	0.2094346	1.00E-10	1.00E+00	kz	1	0	1
kzkpz_ww5	fixed	factor	5.46E-02	1.00E-10	1.00E+00	kz	1	0	1
kzkpz_ww6	fixed	factor	0.2514685	1.00E-10	1.00E+00	kz	1	0	1
kzkpz_ww7	fixed	factor	4.47E-02	1.00E-10	1.00E+00	kz	1	0	1
kzkpz_ww8	fixed	factor	3.45E-02	1.00E-10	1.00E+00	kz	1	0	1
kzkpz_ww9	fixed	factor	2.28E-02	1.00E-10	1.00E+00	kz	1	0	1
kzkpz_ww10	fixed	factor	0.689906	1.00E-10	1.00E+00	kz	1	0	1
kzkpz_ww11	fixed	factor	2.90E-02	1.00E-10	1.00E+00	kz	1	0	1
kzkpz_ww12	fixed	factor	2.77E-02	1.00E-10	1.00E+00	kz	1	0	1
kzkpz_ww13	fixed	factor	0.1387252	1.00E-10	1.00E+00	kz	1	0	1
kzkpz_ww14	fixed	factor	8.24E-02	1.00E-10	1.00E+00	kz	1	0	1
kzkpz_ww15	fixed	factor	6.72E-03	1.00E-10	1.00E+00	kz	1	0	1
kzkpz_ww16	fixed	factor	0.25198	1.00E-10	1.00E+00	kz	1	0	1
kzkpz_ww17	fixed	factor	5.01E-02	1.00E-10	1.00E+00	kz	1	0	1
kzkpz_ww18	fixed	factor	0.1081463	1.00E-10	1.00E+00	kz	1	0	1
kzkpz_ww19	fixed	factor	7.83E-02	1.00E-10	1.00E+00	kz	1	0	1
kzkpz_ww20	fixed	factor	7.11E-02	1.00E-10	1.00E+00	kz	1	0	1
kzkpz_ww21	fixed	factor	4.43E-02	1.00E-10	1.00E+00	kz	1	0	1
kzkpz_ww22	fixed	factor	5.54E-03	1.00E-10	1.00E+00	kz	1	0	1
kzkpz_ww23	fixed	factor	2.53E-02	1.00E-10	1.00E+00	kz	1	0	1
kzkpz_ww24	fixed	factor	6.67E-02	1.00E-10	1.00E+00	kz	1	0	1
kzkpz_ww25	fixed	factor	0.7588353	1.00E-10	1.00E+00	kz	1	0	1
kzkpz_ww26	fixed	factor	5.61E-02	1.00E-10	1.00E+00	kz	1	0	1
kzkpz_ww27	fixed	factor	0.141205	1.00E-10	1.00E+00	kz	1	0	1
kzkpz_ww28	fixed	factor	9.83E-02	1.00E-10	1.00E+00	kz	1	0	1
kzkpz_ww29	fixed	factor	1	1.00E-10	1.00E+00	kz	1	0	1
kzkpz_ww30	fixed	factor	0.1197476	1.00E-10	1.00E+00	kz	1	0	1
kzkpz_ww31	fixed	factor	7.86E-02	1.00E-10	1.00E+00	kz	1	0	1
kzkpz_ww32	fixed	factor	0.2295104	1.00E-10	1.00E+00	kz	1	0	1
kzkpz_ww33	fixed	factor	6.55E-02	1.00E-10	1.00E+00	kz	1	0	1
kzkpz_ww34	fixed	factor	0.1740546	1.00E-10	1.00E+00	kz	1	0	1
kzkpz_ww35	fixed	factor	6.69E-02	1.00E-10	1.00E+00	kz	1	0	1
kzkpz_ww36	fixed	factor	0.1169884	1.00E-10	1.00E+00	kz	1	0	1
kzkpz_ww37	fixed	factor	9.19E-02	1.00E-10	1.00E+00	kz	1	0	1
kzkpz_ww38	fixed	factor	6.46E-02	1.00E-10	1.00E+00	kz	1	0	1
kzkpz_ww39	fixed	factor	0.1697156	1.00E-10	1.00E+00	kz	1	0	1
kzkpz_ww40	fixed	factor	4.68E-02	1.00E-10	1.00E+00	kz	1	0	1
kzkpz_ww41	fixed	factor	0.1747825	1.00E-10	1.00E+00	kz	1	0	1
kzkpz_ww42	fixed	factor	0.1011558	1.00E-10	1.00E+00	kz	1	0	1
kzkpz_ww43	fixed	factor	0.1711414	1.00E-10	1.00E+00	kz	1	0	1
kzkpz_ww44	fixed	factor	9.31E-02	1.00E-10	1.00E+00	kz	1	0	1
kzkpz_ww45	fixed	factor	5.89E-02	1.00E-10	1.00E+00	kz	1	0	1
kzkpz_ww46	fixed	factor	0.1489351	1.00E-10	1.00E+00	kz	1	0	1
kzkpz_ww47	fixed	factor	0.2691484	1.00E-10	1.00E+00	kz	1	0	1
kzkpz_ww48	fixed	factor	1	1.00E-10	1.00E+00	kz	1	0	1
kzkpz_ww49	fixed	factor	8.45E-02	1.00E-10	1.00E+00	kz	1	0	1
kzkpz_ww50	fixed	factor	7.02E-02	1.00E-10	1.00E+00	kz	1	0	1
kzkpz_ww51	fixed	factor	6.70E-02	1.00E-10	1.00E+00	kz	1	0	1
kzkpz_ww52	fixed	factor	0.2818979	1.00E-10	1.00E+00	kz	1	0	1
kzkpz_ww53	fixed	factor	2.58E-02	1.00E-10	1.00E+00	kz	1	0	1
kzkpz_ww54	fixed	factor	7.00E-02	1.00E-10	1.00E+00	kz	1	0	1
kzkpz_ww55	fixed	factor	0.1976773	1.00E-10	1.00E+00	kz	1	0	1
kzkpz_ww56	fixed	factor	9.58E-02	1.00E-10	1.00E+00	kz	1	0	1
kzkpz_ww57	fixed	factor	0.1225401	1.00E-10	1.00E+00	kz	1	0	1
kzkpz_ww58	fixed	factor	0.1639028	1.00E-10	1.00E+00	kz	1	0	1
kzkpz_ww59	fixed	factor	2.81E-02	1.00E-10	1.00E+00	kz	1	0	1
kzkpz_ww60	fixed	factor	4.50E-02	1.00E-10	1.00E+00	kz	1	0	1
kzkpz_ww61	fixed	factor	0.3146663	1.00E-10	1.00E+00	kz	1	0	1
kzkpz_ww62	fixed	factor	5.33E-02	1.00E-10	1.00E+00	kz	1	0	1
kzkpz_ww63	fixed	factor	9.03E-02	1.00E-10	1.00E+00	kz	1	0	1
kzkpz_ww64	fixed	factor	9.26E-02	1.00E-10	1.00E+00	kz	1	0	1
kzkpz_ww65	fixed	factor	0.131842	1.00E-10	1.00E+00	kz	1	0	1
kzkpz_ww66	fixed	factor	6.62E-02	1.00E-10	1.00E+00	kz	1	0	1
kzkpz_ww67	fixed	factor	0.1297233	1.00E-10	1.00E+00	kz	1	0	1
kzkpz_ww68	fixed	factor	3.19E-02	1.00E-10	1.00E+00	kz	1	0	1
kzkpz_ww69	fixed	factor	0.1159934	1.00E-10	1.00E+00	kz	1	0	1
kzkpz_ww70	fixed	factor	7.08E-02	1.00E-10	1.00E+00	kz	1	0	1
kzkpz_ww71	fixed	factor	0.1005895	1.00E-10	1.00E+00	kz	1	0	1
kzkpz_ww72	fixed	factor	0.1531571	1.00E-10	1.00E+00	kz	1	0	1
kzkpz_ww73	fixed	factor	0.2492925	1.00E-10	1.00E+00	kz	1	0	1
kzkpz_ww74	fixed	factor	0.100374	1.00E-10	1.00E+00	kz	1	0	1
kzkpz_ww75	fixed	factor	5.27E-02	1.00E-10	1.00E+00	kz	1	0	1
kzkpz_ww76	fixed	factor	0.1109434	1.00E-10	1.00E+00	kz	1	0	1
kzkpz_ww77	fixed	factor	2.86E-02	1.00E-10	1.00E+00	kz	1	0	1
kzkpz_ww78	fixed	factor	5.60E-02	1.00E-10	1.00E+00	kz	1	0	1
kzkpz_ww79	fixed	factor	7.99E-02	1.00E-10	1.00E+00	kz	1	0	1
kzkpz_ww80	fixed	factor	0.1910384	1.00E-10	1.00E+00	kz	1	0	1
kzkpz_ww81	fixed	factor	5.37E-02	1.00E-10	1.00E+00	kz	1	0	1
kzkpz_ww82	fixed	factor	0.1137712	1.00E-10	1.00E+00	kz	1	0	1
kzkpz_ww83	fixed	factor	6.14E-02	1.00E-10	1.00E+00	kz	1	0	1
kzkpz_ww84	fixed	factor	0.2192205	1.00E-10	1.00E+00	kz	1	0	1
kzkpz_ww85	fixed	factor	5.33E-02	1.00E-10	1.00E+00	kz	1	0	1
kzkpz_ww86	fixed	factor	8.84E-02	1.00E-10	1.00E+00	kz	1	0	1
kzkpz_ww87	fixed	factor	0.5828588	1.00E-10	1.00E+00	kz	1	0	1
kzkpz_ww88	fixed	factor	9.74E-02	1.00E-10	1.00E+00	kz	1	0	1
kzkpz_ww89	fixed	factor	0.1359954	1.00E-10	1.00E+00	kz	1	0	1
kzkpz_ww90	fixed	factor	0.1308609	1.00E-10	1.00E+00	kz	1	0	1
kzkpz_ww91	fixed	factor	0.1336725	1.00E-10	1.00E+00	kz	1	0	1
kzkpz_ww92	fixed	factor	9.30E-02	1.00E-10	1.00E+00	kz	1	0	1
kzkpz_ww93	fixed	factor	1	1.00E-10	1.00E+00	kz	1	0	1
kzkpz_ww94	fixed	factor	4.20E-02	1.00E-10	1.00E+00	kz	1	0	1
kzkpz_ww95	fixed	factor	5.63E-02	1.00E-10	1.00E+00	kz	1	0	1
kzkpz_ww96	fixed	factor	5.60E-02	1.00E-10	1.00E+00	kz	1	0	1
kzkpz_ww97	fixed	factor	7.93E-02	1.00E-10	1.00E+00	kz	1	0	1
kzkpz_ww98	fixed	factor	0.1074866	1.00E-10	1.00E+00	kz	1	0	1
kzkpz_ww99	fixed	factor	8.34E-02	1.00E-10	1.00E+00	kz	1	0	1
kzkpz_ms1	fixed	factor	0.1756575	1.00E-10	1.00E+00	kz	1	0	1
kzkpz_ms2	fixed	factor	5.99E-02	1.00E-10	1.00E+00	kz	1	0	1
kzkpz_ms3	fixed	factor	8.62E-02	1.00E-10	1.00E+00	kz	1	0	1
kzkpz_ms4	fixed	factor	6.03E-02	1.00E-10	1.00E+00	kz	1	0	1
kzkpz_ms5	fixed	factor	0.1137552	1.00E-10	1.00E+00	kz	1	0	1
kzkpz_ms6	fixed	factor	6.79E-02	1.00E-10	1.00E+00	kz	1	0	1
kzkpz_ms7	fixed	factor	0.219407	1.00E-10	1.00E+00	kz	1	0	1
kzkpz_ms8	fixed	factor	0.1020291	1.00E-10	1.00E+00	kz	1	0	1
kzkpz_ms9	fixed	factor	6.60E-02	1.00E-10	1.00E+00	kz	1	0	1
kzkpz_ms10	fixed	factor	5.23E-02	1.00E-10	1.00E+00	kz	1	0	1
kzkpz_ms11	fixed	factor	0.124654	1.00E-10	1.00E+00	kz	1	0	1
kzkpz_ms12	fixed	factor	3.15E-02	1.00E-10	1.00E+00	kz	1	0	1
kzkpz_ms13	fixed	factor	7.71E-02	1.00E-10	1.00E+00	kz	1	0	1
kzkpz_ms14	fixed	factor	9.64E-02	1.00E-10	1.00E+00	kz	1	0	1
kzkpz_ms15	fixed	factor	7.42E-02	1.00E-10	1.00E+00	kz	1	0	1
kzkpz_ms16	fixed	factor	5.37E-02	1.00E-10	1.00E+00	kz	1	0	1
kzkpz_ms17	fixed	factor	1.94E-03	1.00E-10	1.00E+00	kz	1	0	1
kzkpz_ms18	fixed	factor	6.17E-02	1.00E-10	1.00E+00	kz	1	0	1
kzkpz_ms19	fixed	factor	0.1317664	1.00E-10	1.00E+00	kz	1	0	1
kzkpz_ms20	fixed	factor	0.1021555	1.00E-10	1.00E+00	kz	1	0	1
kzkpz_ms21	fixed	factor	0.2056802	1.00E-10	1.00E+00	kz	1	0	1
kzkpz_ms22	fixed	factor	0.1480737	1.00E-10	1.00E+00	kz	1	0	1
kzkpz_ms23	fixed	factor	2.98E-02	1.00E-10	1.00E+00	kz	1	0	1
kzkpz_ms24	fixed	factor	6.35E-02	1.00E-10	1.00E+00	kz	1	0	1
kzkpz_ms25	fixed	factor	0.2747874	1.00E-10	1.00E+00	kz	1	0	1
kzkpz_ms26	fixed	factor	9.26E-02	1.00E-10	1.00E+00	kz	1	0	1
kzkpz_ms27	fixed	factor	0.1065167	1.00E-10	1.00E+00	kz	1	0	1
kzkpz_ms28	fixed	factor	9.00E-02	1.00E-10	1.00E+00	kz	1	0	1
kzkpz_ms29	fixed	factor	5.48E-02	1.00E-10	1.00E+00	kz	1	0	1
kzkpz_ms30	fixed	factor	6.42E-02	1.00E-10	1.00E+00	kz	1	0	1
kzkpz_ms31	fixed	factor	9.26E-02	1.00E-10	1.00E+00	kz	1	0	1
kzkpz_ms32	fixed	factor	6.08E-02	1.00E-10	1.00E+00	kz	1	0	1
kzkpz_ms33	fixed	factor	8.59E-02	1.00E-10	1.00E+00	kz	1	0	1
kzkpz_ms34	fixed	factor	9.04E-02	1.00E-10	1.00E+00	kz	1	0	1
kzkpz_ms35	fixed	factor	0.1388002	1.00E-10	1.00E+00	kz	1	0	1
kzkpz_ms36	fixed	factor	0.1563428	1.00E-10	1.00E+00	kz	1	0	1
kzkpz_ms37	fixed	factor	7.17E-02	1.00E-10	1.00E+00	kz	1	0	1
kzkpz_ms38	fixed	factor	8.73E-02	1.00E-10	1.00E+00	kz	1	0	1
kzkpz_ms39	fixed	factor	0.1431688	1.00E-10	1.00E+00	kz	1	0	1
kzkpz_ms40	fixed	factor	6.39E-02	1.00E-10	1.00E+00	kz	1	0	1
kzkpz_ms41	fixed	factor	8.85E-02	1.00E-10	1.00E+00	kz	1	0	1
kzkpz_ms42	fixed	factor	5.85E-02	1.00E-10	1.00E+00	kz	1	0	1
kzkpz_ms43	fixed	factor	0.1636305	1.00E-10	1.00E+00	kz	1	0	1
kzkpz_ms44	fixed	factor	0.1305575	1.00E-10	1.00E+00	kz	1	0	1
kzkpz_ms45	fixed	factor	0.2718273	1.00E-10	1.00E+00	kz	1	0	1