pcf
* control data
restart regularisation
597  4599  4  5890  23
7  3  double  point  1  0  0
2.000000e+001  -3.000000e+000  3.000000e-001  1.000000e-002  10 999 lamforgive
0.1  1.000000e+001  1.000000e-003
1.000000e-001 noaui
0  1.000000e-003  3  3  1.000000e-002  3
0 0 0 REISAVEITN PARSAVEITN
* singular value decomposition
 1
 534  5.000000e-007
 1
* parameter groups
Kp     relative   1.000000e-002  0.000000e+000  switch  2.000000e+000  parabolic
Kz     relative   1.000000e-002  0.000000e+000  switch  2.000000e+000  parabolic
Rech relative 1.00E-02 0.00E+00 switch 2.00E+00 parabolic
SFR_cond relative 1.00E-02 0 switch 2 parabolic
* parameter data
kpkpx_tc2  log  factor    4.454861      0.43  13.54  kp  1  0  1
kpkpx_tc3  log  factor    5.720760      0.43  13.54  kp  1  0  1
kpkpx_tc4  log  factor    3.541445      0.43  13.54  kp  1  0  1
kpkpx_tc7  log  factor    5.942886      0.43  13.54  kp  1  0  1
kpkpx_tc8  log  factor    2.298416      0.43  13.54  kp  1  0  1
kpkpx_tc9  log  factor    3.905260      0.43  13.54  kp  1  0  1
kpkpx_tc10  log  factor    2.511597      0.43  13.54  kp  1  0  1
kpkpx_tc11  log  factor    3.093313      0.43  13.54  kp  1  0  1
kpkpx_tc12  log  factor    2.730741      0.43  13.54  kp  1  0  1
kpkpx_tc13  log  factor    4.449415      0.43  13.54  kp  1  0  1
kpkpx_tc14  log  factor    5.119317      0.43  13.54  kp  1  0  1
kpkpx_tc15  log  factor    3.711197      0.43  13.54  kp  1  0  1
kpkpx_tc16  log  factor    2.812228      0.43  13.54  kp  1  0  1
kpkpx_tc17  log  factor    2.583630      0.43  13.54  kp  1  0  1
kpkpx_tc18  log  factor    4.787919      0.43  13.54  kp  1  0  1
kpkpx_tc19  log  factor    5.737146      0.43  13.54  kp  1  0  1
kpkpx_tc20  log  factor    1.228280      0.43  13.54  kp  1  0  1
kpkpx_tc21  log  factor    2.043780      0.43  13.54  kp  1  0  1
kpkpx_tc22  log  factor    2.020669      0.43  13.54  kp  1  0  1
kpkpx_tc23  log  factor    2.611795      0.43  13.54  kp  1  0  1
kpkpx_tc24  log  factor    4.605318      0.43  13.54  kp  1  0  1
kpkpx_tc25  log  factor    4.186175      0.43  13.54  kp  1  0  1
kpkpx_tc27  log  factor    1.069970      0.43  13.54  kp  1  0  1
kpkpx_tc28  log  factor    3.518603      0.43  13.54  kp  1  0  1
kpkpx_tc29  log  factor    2.802091      0.43  13.54  kp  1  0  1
kpkpx_tc30  log  factor    2.341080      0.43  13.54  kp  1  0  1
kpkpx_tc31  log  factor    6.441180      0.43  13.54  kp  1  0  1
kpkpx_tc32  log  factor    3.352459      0.43  13.54  kp  1  0  1
kpkpx_tc33  log  factor    2.263311      0.43  13.54  kp  1  0  1
kpkpx_tc34  log  factor    2.134433      0.43  13.54  kp  1  0  1
kpkpx_tc35  log  factor   0.8336871      0.43  13.54  kp  1  0  1
kpkpx_tc36  log  factor    1.433078      0.43  13.54  kp  1  0  1
kpkpx_tc37  log  factor    3.335963      0.43  13.54  kp  1  0  1
kpkpx_tc38  log  factor    3.788372      0.43  13.54  kp  1  0  1
kpkpx_tc39  log  factor    4.378338      0.43  13.54  kp  1  0  1
kpkpx_tc40  log  factor    2.073254      0.43  13.54  kp  1  0  1
kpkpx_tc41  log  factor    2.585237      0.43  13.54  kp  1  0  1
kpkpx_tc42  log  factor    2.373244      0.43  13.54  kp  1  0  1
kpkpx_tc43  log  factor    2.480823      0.43  13.54  kp  1  0  1
kpkpx_tc44  log  factor    2.194127      0.43  13.54  kp  1  0  1
kpkpx_tc45  log  factor    1.171662      0.43  13.54  kp  1  0  1
kpkpx_tc46  log  factor    3.091058      0.43  13.54  kp  1  0  1
kpkpx_tc47  log  factor    2.356954      0.43  13.54  kp  1  0  1
kpkpx_tc48  log  factor    2.639458      0.43  13.54  kp  1  0  1
kpkpx_tc49  log  factor    2.972526      0.43  13.54  kp  1  0  1
kpkpx_tc50  log  factor    3.054547      0.43  13.54  kp  1  0  1
kpkpx_tc52  log  factor    2.681889      0.43  13.54  kp  1  0  1
kpkpx_tc53  log  factor    2.289494      0.43  13.54  kp  1  0  1
kpkpx_tc54  log  factor    2.541479      0.43  13.54  kp  1  0  1
kpkpx_tc55  log  factor    1.864779      0.43  13.54  kp  1  0  1
kpkpx_tc56  log  factor    1.800466      0.43  13.54  kp  1  0  1
kpkpx_tc57  log  factor    2.256701      0.43  13.54  kp  1  0  1
kpkpx_tc58  log  factor    2.859839      0.43  13.54  kp  1  0  1
kpkpx_tc59  log  factor    2.655186      0.43  13.54  kp  1  0  1
kpkpx_ec1  log  factor    7.451967      0.28  98.33  kp  1  0  1
kpkpx_ec2  log  factor    6.915245      0.28  98.33  kp  1  0  1
kpkpx_ec4  log  factor    6.899955      0.28  98.33  kp  1  0  1
kpkpx_ec5  log  factor    7.080426      0.28  98.33  kp  1  0  1
kpkpx_ec7  log  factor    6.856119      0.28  98.33  kp  1  0  1
kpkpx_ec8  log  factor    7.042884      0.28  98.33  kp  1  0  1
kpkpx_ec9  log  factor    6.994055      0.28  98.33  kp  1  0  1
kpkpx_ec10  log  factor    6.954254      0.28  98.33  kp  1  0  1
kpkpx_ec11  log  factor    6.831906      0.28  98.33  kp  1  0  1
kpkpx_ec13  log  factor    7.019927      0.28  98.33  kp  1  0  1
kpkpx_ec14  log  factor    6.816357      0.28  98.33  kp  1  0  1
kpkpx_ec15  log  factor    6.868648      0.28  98.33  kp  1  0  1
kpkpx_ec16  log  factor    6.759633      0.28  98.33  kp  1  0  1
kpkpx_ec17  log  factor    6.901141      0.28  98.33  kp  1  0  1
kpkpx_ec18  log  factor    6.838002      0.28  98.33  kp  1  0  1
kpkpx_ww1  log  factor    5.697517      0.28  98.33  kp  1  0  1
kpkpx_ww2  log  factor    5.156319      0.28  98.33  kp  1  0  1
kpkpx_ww3  log  factor    4.857754      0.28  98.33  kp  1  0  1
kpkpx_ww4  log  factor    4.489326      0.28  98.33  kp  1  0  1
kpkpx_ww5  log  factor    4.625619      0.28  98.33  kp  1  0  1
kpkpx_ww6  log  factor    4.787014      0.28  98.33  kp  1  0  1
kpkpx_ww7  log  factor    4.801219      0.28  98.33  kp  1  0  1
kpkpx_ww8  log  factor    5.423488      0.28  98.33  kp  1  0  1
kpkpx_ww9  log  factor    6.711601      0.28  98.33  kp  1  0  1
kpkpx_ww10  log  factor    7.332810      0.28  98.33  kp  1  0  1
kpkpx_ww11  log  factor    7.590687      0.28  98.33  kp  1  0  1
kpkpx_ww12  log  factor    4.078284      0.28  98.33  kp  1  0  1
kpkpx_ww13  log  factor    5.395250      0.28  98.33  kp  1  0  1
kpkpx_ww14  log  factor    5.536792      0.28  98.33  kp  1  0  1
kpkpx_ww15  log  factor    4.776819      0.28  98.33  kp  1  0  1
kpkpx_ww16  log  factor    4.862234      0.28  98.33  kp  1  0  1
kpkpx_ww17  log  factor    7.870896      0.28  98.33  kp  1  0  1
kpkpx_ww18  log  factor    10.26547      0.28  98.33  kp  1  0  1
kpkpx_ww19  log  factor    7.553926      0.28  98.33  kp  1  0  1
kpkpx_ww20  log  factor    8.984439      0.28  98.33  kp  1  0  1
kpkpx_ww21  log  factor    6.379142      0.28  98.33  kp  1  0  1
kpkpx_ww22  log  factor    4.887031      0.28  98.33  kp  1  0  1
kpkpx_ww23  log  factor    4.739313      0.28  98.33  kp  1  0  1
kpkpx_ww24  log  factor    5.940162      0.28  98.33  kp  1  0  1
kpkpx_ww25  log  factor    5.071724      0.28  98.33  kp  1  0  1
kpkpx_ww26  log  factor    5.754612      0.28  98.33  kp  1  0  1
kpkpx_ww27  log  factor    5.469999      0.28  98.33  kp  1  0  1
kpkpx_ww28  log  factor    7.111252      0.28  98.33  kp  1  0  1
kpkpx_ww29  log  factor    7.046523      0.28  98.33  kp  1  0  1
kpkpx_ww30  log  factor    8.838566      0.28  98.33  kp  1  0  1
kpkpx_ww31  log  factor    4.507009      0.28  98.33  kp  1  0  1
kpkpx_ww32  log  factor    5.626756      0.28  98.33  kp  1  0  1
kpkpx_ww33  log  factor    5.216814      0.28  98.33  kp  1  0  1
kpkpx_ww34  log  factor    4.785591      0.28  98.33  kp  1  0  1
kpkpx_ww35  log  factor    3.819201      0.28  98.33  kp  1  0  1
kpkpx_ww36  log  factor    4.226632      0.28  98.33  kp  1  0  1
kpkpx_ww37  log  factor    5.013672      0.28  98.33  kp  1  0  1
kpkpx_ww38  log  factor    5.182578      0.28  98.33  kp  1  0  1
kpkpx_ww39  log  factor    5.428607      0.28  98.33  kp  1  0  1
kpkpx_ww40  log  factor    8.345458      0.28  98.33  kp  1  0  1
kpkpx_ww41  log  factor    4.445960      0.28  98.33  kp  1  0  1
kpkpx_ww42  log  factor    4.530238      0.28  98.33  kp  1  0  1
kpkpx_ww43  log  factor    5.993596      0.28  98.33  kp  1  0  1
kpkpx_ww44  log  factor    4.760026      0.28  98.33  kp  1  0  1
kpkpx_ww45  log  factor    4.738636      0.28  98.33  kp  1  0  1
kpkpx_ww46  log  factor    5.351152      0.28  98.33  kp  1  0  1
kpkpx_ww47  log  factor    5.596506      0.28  98.33  kp  1  0  1
kpkpx_ww48  log  factor    6.896959      0.28  98.33  kp  1  0  1
kpkpx_ww49  log  factor    4.461340      0.28  98.33  kp  1  0  1
kpkpx_ww50  log  factor    1.538064      0.28  98.33  kp  1  0  1
kpkpx_ww51  log  factor   0.2800000      0.28  98.33  kp  1  0  1
kpkpx_ww52  log  factor    5.073984      0.28  98.33  kp  1  0  1
kpkpx_ww53  log  factor    4.382005      0.28  98.33  kp  1  0  1
kpkpx_ww54  log  factor    6.862477      0.28  98.33  kp  1  0  1
kpkpx_ww55  log  factor    7.558665      0.28  98.33  kp  1  0  1
kpkpx_ww56  log  factor    5.218678      0.28  98.33  kp  1  0  1
kpkpx_ww57  log  factor    98.33000      0.28  98.33  kp  1  0  1
kpkpx_ww58  log  factor    17.66272      0.28  98.33  kp  1  0  1
kpkpx_ww59  log  factor    6.526854      0.28  98.33  kp  1  0  1
kpkpx_ww60  log  factor    9.540642      0.28  98.33  kp  1  0  1
kpkpx_ww61  log  factor   0.9657997      0.28  98.33  kp  1  0  1
kpkpx_ww62  log  factor    1.268157      0.28  98.33  kp  1  0  1
kpkpx_ww63  log  factor    12.76095      0.28  98.33  kp  1  0  1
kpkpx_ww64  log  factor    4.892086      0.28  98.33  kp  1  0  1
kpkpx_ww65  log  factor    8.669242      0.28  98.33  kp  1  0  1
kpkpx_ww66  log  factor    6.132958      0.28  98.33  kp  1  0  1
kpkpx_ww67  log  factor    4.857874      0.28  98.33  kp  1  0  1
kpkpx_ww68  log  factor    8.780771      0.28  98.33  kp  1  0  1
kpkpx_ww69  log  factor    8.077599      0.28  98.33  kp  1  0  1
kpkpx_ww70  log  factor    4.868733      0.28  98.33  kp  1  0  1
kpkpx_ww71  log  factor    6.109482      0.28  98.33  kp  1  0  1
kpkpx_ww72  log  factor    5.783165      0.28  98.33  kp  1  0  1
kpkpx_ww73  log  factor    6.970482      0.28  98.33  kp  1  0  1
kpkpx_ww74  log  factor    8.968320      0.28  98.33  kp  1  0  1
kpkpx_ww75  log  factor    8.511408      0.28  98.33  kp  1  0  1
kpkpx_ww76  log  factor    6.074728      0.28  98.33  kp  1  0  1
kpkpx_ww77  log  factor    5.008150      0.28  98.33  kp  1  0  1
kpkpx_ww78  log  factor    4.973846      0.28  98.33  kp  1  0  1
kpkpx_ww79  log  factor    5.228193      0.28  98.33  kp  1  0  1
kpkpx_ww80  log  factor    4.936815      0.28  98.33  kp  1  0  1
kpkpx_ww81  log  factor    4.845709      0.28  98.33  kp  1  0  1
kpkpx_ww82  log  factor    4.610484      0.28  98.33  kp  1  0  1
kpkpx_ww83  log  factor    6.937331      0.28  98.33  kp  1  0  1
kpkpx_ww84  log  factor    6.757620      0.28  98.33  kp  1  0  1
kpkpx_ww85  log  factor    5.972127      0.28  98.33  kp  1  0  1
kpkpx_ww86  log  factor    4.736763      0.28  98.33  kp  1  0  1
kpkpx_ww87  log  factor    4.891044      0.28  98.33  kp  1  0  1
kpkpx_ww88  log  factor    5.751304      0.28  98.33  kp  1  0  1
kpkpx_ww89  log  factor    4.863335      0.28  98.33  kp  1  0  1
kpkpx_ww90  log  factor    5.071341      0.28  98.33  kp  1  0  1
kpkpx_ww91  log  factor    4.892972      0.28  98.33  kp  1  0  1
kpkpx_ww92  log  factor    4.260105      0.28  98.33  kp  1  0  1
kpkpx_ww93  log  factor    5.172857      0.28  98.33  kp  1  0  1
kpkpx_ww94  log  factor    3.962527      0.28  98.33  kp  1  0  1
kpkpx_ww95  log  factor    5.021005      0.28  98.33  kp  1  0  1
kpkpx_ww96  log  factor    4.477525      0.28  98.33  kp  1  0  1
kpkpx_ww97  log  factor    5.587769      0.28  98.33  kp  1  0  1
kpkpx_ww98  log  factor    5.167886      0.28  98.33  kp  1  0  1
kpkpx_ww99  log  factor    5.229369      0.28  98.33  kp  1  0  1
kpkpx_ms1  log  factor    9.872503      0.32  73.06  kp  1  0  1
kpkpx_ms2  log  factor    7.024077      0.32  73.06  kp  1  0  1
kpkpx_ms3  log  factor    6.711744      0.32  73.06  kp  1  0  1
kpkpx_ms4  log  factor    3.658915      0.32  73.06  kp  1  0  1
kpkpx_ms5  log  factor    5.130189      0.32  73.06  kp  1  0  1
kpkpx_ms6  log  factor    5.675296      0.32  73.06  kp  1  0  1
kpkpx_ms7  log  factor    5.761206      0.32  73.06  kp  1  0  1
kpkpx_ms8  log  factor    5.985970      0.32  73.06  kp  1  0  1
kpkpx_ms9  log  factor    12.29177      0.32  73.06  kp  1  0  1
kpkpx_ms10  log  factor    31.80275      0.32  73.06  kp  1  0  1
kpkpx_ms11  log  factor    5.189763      0.32  73.06  kp  1  0  1
kpkpx_ms12  log  factor    6.287155      0.32  73.06  kp  1  0  1
kpkpx_ms13  log  factor    6.481884      0.32  73.06  kp  1  0  1
kpkpx_ms14  log  factor    7.523170      0.32  73.06  kp  1  0  1
kpkpx_ms15  log  factor    6.037190      0.32  73.06  kp  1  0  1
kpkpx_ms16  log  factor    5.920663      0.32  73.06  kp  1  0  1
kpkpx_ms17  log  factor    24.33882      0.32  73.06  kp  1  0  1
kpkpx_ms18  log  factor    50.08679      0.32  73.06  kp  1  0  1
kpkpx_ms19  log  factor    73.06000      0.32  73.06  kp  1  0  1
kpkpx_ms20  log  factor    34.02263      0.32  73.06  kp  1  0  1
kpkpx_ms21  log  factor    13.30549      0.32  73.06  kp  1  0  1
kpkpx_ms22  log  factor    5.856084      0.32  73.06  kp  1  0  1
kpkpx_ms23  log  factor    6.939886      0.32  73.06  kp  1  0  1
kpkpx_ms24  log  factor    16.22256      0.32  73.06  kp  1  0  1
kpkpx_ms25  log  factor    9.260089      0.32  73.06  kp  1  0  1
kpkpx_ms26  log  factor    11.36110      0.32  73.06  kp  1  0  1
kpkpx_ms27  log  factor    9.987275      0.32  73.06  kp  1  0  1
kpkpx_ms28  log  factor    7.584726      0.32  73.06  kp  1  0  1
kpkpx_ms29  log  factor    73.06000      0.32  73.06  kp  1  0  1
kpkpx_ms30  log  factor    73.06000      0.32  73.06  kp  1  0  1
kpkpx_ms31  log  factor    4.719002      0.32  73.06  kp  1  0  1
kpkpx_ms32  log  factor    10.61769      0.32  73.06  kp  1  0  1
kpkpx_ms33  log  factor    7.561388      0.32  73.06  kp  1  0  1
kpkpx_ms34  log  factor    6.258111      0.32  73.06  kp  1  0  1
kpkpx_ms35  log  factor    3.228229      0.32  73.06  kp  1  0  1
kpkpx_ms36  log  factor    7.844439      0.32  73.06  kp  1  0  1
kpkpx_ms37  log  factor    2.797519      0.32  73.06  kp  1  0  1
kpkpx_ms38  log  factor    3.132515      0.32  73.06  kp  1  0  1
kpkpx_ms39  log  factor    7.440179      0.32  73.06  kp  1  0  1
kpkpx_ms40  log  factor    10.97682      0.32  73.06  kp  1  0  1
kpkpx_ms41  log  factor    7.162062      0.32  73.06  kp  1  0  1
kpkpx_ms42  log  factor    4.918073      0.32  73.06  kp  1  0  1
kpkpx_ms43  log  factor    16.05902      0.32  73.06  kp  1  0  1
kpkpx_ms44  log  factor    14.07703      0.32  73.06  kp  1  0  1
kpkpx_ms45  log  factor    6.047356      0.32  73.06  kp  1  0  1
kpkpx_ms46  log  factor    6.921629      0.32  73.06  kp  1  0  1
kpkpx_ms47  log  factor    73.06000      0.32  73.06  kp  1  0  1
kpkpx_ms48  log  factor   0.5345395      0.32  73.06  kp  1  0  1
kpkpx_ms49  log  factor   0.3200000      0.32  73.06  kp  1  0  1
kpkpx_ms50  log  factor    63.25551      0.32  73.06  kp  1  0  1
kpkpx_ms51  log  factor    73.06000      0.32  73.06  kp  1  0  1
kpkpx_ms52  log  factor    73.06000      0.32  73.06  kp  1  0  1
kpkpx_ms53  log  factor    5.220477      0.32  73.06  kp  1  0  1
kpkpx_ms54  log  factor    16.03902      0.32  73.06  kp  1  0  1
kpkpx_ms55  log  factor    73.06000      0.32  73.06  kp  1  0  1
kpkpx_ms56  log  factor    5.758701      0.32  73.06  kp  1  0  1
kpkpx_ms57  log  factor    9.280408      0.32  73.06  kp  1  0  1
kpkpx_ms58  log  factor    15.04639      0.32  73.06  kp  1  0  1
kpkpx_ms59  log  factor    11.93931      0.32  73.06  kp  1  0  1
kpkpx_ms60  log  factor    15.38564      0.32  73.06  kp  1  0  1
kpkpx_ms61  log  factor    9.954250      0.32  73.06  kp  1  0  1
kpkpx_ms62  log  factor    17.06286      0.32  73.06  kp  1  0  1
kpkpx_ms63  log  factor    61.30810      0.32  73.06  kp  1  0  1
kpkpx_ms64  log  factor    73.06000      0.32  73.06  kp  1  0  1
kpkpx_ms65  log  factor    46.93291      0.32  73.06  kp  1  0  1
kpkpx_ms66  log  factor    13.63294      0.32  73.06  kp  1  0  1
kpkpx_ms67  log  factor    5.542125      0.32  73.06  kp  1  0  1
kpkpx_ms68  log  factor    9.431281      0.32  73.06  kp  1  0  1
kpkpx_ms69  log  factor    7.900215      0.32  73.06  kp  1  0  1
kpkpx_ms70  log  factor    6.226355      0.32  73.06  kp  1  0  1
kpkpx_ms71  log  factor    10.45351      0.32  73.06  kp  1  0  1
kpkpx_ms72  log  factor    13.16281      0.32  73.06  kp  1  0  1
kpkpx_ms73  log  factor    73.06000      0.32  73.06  kp  1  0  1
kpkpx_ms74  log  factor    73.06000      0.32  73.06  kp  1  0  1
kpkpx_ms75  log  factor    73.06000      0.32  73.06  kp  1  0  1
kpkpx_ms76  log  factor    13.28327      0.32  73.06  kp  1  0  1
kpkpx_ms77  log  factor    6.602717      0.32  73.06  kp  1  0  1
kpkpx_ms78  log  factor    5.857594      0.32  73.06  kp  1  0  1
kpkpx_ms79  log  factor    8.691438      0.32  73.06  kp  1  0  1
kpkpx_ms80  log  factor    6.887726      0.32  73.06  kp  1  0  1
kpkpx_ms81  log  factor    8.877307      0.32  73.06  kp  1  0  1
kpkpx_ms82  log  factor    9.294268      0.32  73.06  kp  1  0  1
kpkpx_ms83  log  factor    73.06000      0.32  73.06  kp  1  0  1
kpkpx_ms84  log  factor    31.69462      0.32  73.06  kp  1  0  1
kpkpx_ms85  log  factor    12.77121      0.32  73.06  kp  1  0  1
kpkpx_ms86  log  factor    5.620482      0.32  73.06  kp  1  0  1
kpkpx_ms87  log  factor    6.474466      0.32  73.06  kp  1  0  1
kpkpx_ms88  log  factor    10.09234      0.32  73.06  kp  1  0  1
kpkpx_ms89  log  factor    5.830510      0.32  73.06  kp  1  0  1
kpkpx_ms90  log  factor    5.827205      0.32  73.06  kp  1  0  1
kpkpx_ms91  log  factor    6.766838      0.32  73.06  kp  1  0  1
kpkpx_ms92  log  factor    4.918820      0.32  73.06  kp  1  0  1
kpkpx_ms93  log  factor    18.65579      0.32  73.06  kp  1  0  1
kpkpx_ms94  log  factor    16.86202      0.32  73.06  kp  1  0  1
kpkpx_ms95  log  factor    16.45013      0.32  73.06  kp  1  0  1
kpkpx_ms96  log  factor    5.851081      0.32  73.06  kp  1  0  1
kpkpx_ms97  log  factor    11.00156      0.32  73.06  kp  1  0  1
kpkpx_ms98  log  factor    8.498031      0.32  73.06  kp  1  0  1
kpkpx_ms99  log  factor    7.452941      0.32  73.06  kp  1  0  1
kzkpz_tc2  log  factor   6.1725960E-02  1.00e-10  1.00e+00  kz  1  0  1
kzkpz_tc3  log  factor   6.2779994E-02  1.00e-10  1.00e+00  kz  1  0  1
kzkpz_tc4  log  factor   6.2929768E-02  1.00e-10  1.00e+00  kz  1  0  1
kzkpz_tc7  log  factor   6.3780622E-02  1.00e-10  1.00e+00  kz  1  0  1
kzkpz_tc8  log  factor   3.9223245E-02  1.00e-10  1.00e+00  kz  1  0  1
kzkpz_tc9  log  factor   6.7550723E-02  1.00e-10  1.00e+00  kz  1  0  1
kzkpz_tc10  log  factor   4.8993928E-02  1.00e-10  1.00e+00  kz  1  0  1
kzkpz_tc11  log  factor   5.3906456E-02  1.00e-10  1.00e+00  kz  1  0  1
kzkpz_tc12  log  factor   5.5370027E-02  1.00e-10  1.00e+00  kz  1  0  1
kzkpz_tc13  log  factor   5.8607084E-02  1.00e-10  1.00e+00  kz  1  0  1
kzkpz_tc14  log  factor   6.2278406E-02  1.00e-10  1.00e+00  kz  1  0  1
kzkpz_tc15  log  factor   4.6399782E-02  1.00e-10  1.00e+00  kz  1  0  1
kzkpz_tc16  log  factor   5.2763927E-02  1.00e-10  1.00e+00  kz  1  0  1
kzkpz_tc17  log  factor   5.3645862E-02  1.00e-10  1.00e+00  kz  1  0  1
kzkpz_tc18  log  factor   5.2702105E-02  1.00e-10  1.00e+00  kz  1  0  1
kzkpz_tc19  log  factor   4.3944272E-02  1.00e-10  1.00e+00  kz  1  0  1
kzkpz_tc20  log  factor   5.9978159E-02  1.00e-10  1.00e+00  kz  1  0  1
kzkpz_tc21  log  factor   0.1738099      1.00e-10  1.00e+00  kz  1  0  1
kzkpz_tc22  log  factor   6.0832714E-02  1.00e-10  1.00e+00  kz  1  0  1
kzkpz_tc23  log  factor   4.9158634E-02  1.00e-10  1.00e+00  kz  1  0  1
kzkpz_tc24  log  factor   5.9583192E-02  1.00e-10  1.00e+00  kz  1  0  1
kzkpz_tc25  log  factor   5.7044096E-02  1.00e-10  1.00e+00  kz  1  0  1
kzkpz_tc27  log  factor   7.0895505E-02  1.00e-10  1.00e+00  kz  1  0  1
kzkpz_tc28  log  factor   8.8560518E-02  1.00e-10  1.00e+00  kz  1  0  1
kzkpz_tc29  log  factor   5.3267096E-02  1.00e-10  1.00e+00  kz  1  0  1
kzkpz_tc30  log  factor   5.6317466E-02  1.00e-10  1.00e+00  kz  1  0  1
kzkpz_tc31  log  factor   4.5657563E-02  1.00e-10  1.00e+00  kz  1  0  1
kzkpz_tc32  log  factor   5.1013233E-02  1.00e-10  1.00e+00  kz  1  0  1
kzkpz_tc33  log  factor   5.1401866E-02  1.00e-10  1.00e+00  kz  1  0  1
kzkpz_tc34  log  factor   4.1898528E-02  1.00e-10  1.00e+00  kz  1  0  1
kzkpz_tc35  log  factor   1.4575092E-02  1.00e-10  1.00e+00  kz  1  0  1
kzkpz_tc36  log  factor   3.6684223E-02  1.00e-10  1.00e+00  kz  1  0  1
kzkpz_tc37  log  factor   4.2914353E-02  1.00e-10  1.00e+00  kz  1  0  1
kzkpz_tc38  log  factor   5.1609683E-02  1.00e-10  1.00e+00  kz  1  0  1
kzkpz_tc39  log  factor   5.1835593E-02  1.00e-10  1.00e+00  kz  1  0  1
kzkpz_tc40  log  factor   5.0794691E-02  1.00e-10  1.00e+00  kz  1  0  1
kzkpz_tc41  log  factor   5.1286587E-02  1.00e-10  1.00e+00  kz  1  0  1
kzkpz_tc42  log  factor   4.9611913E-02  1.00e-10  1.00e+00  kz  1  0  1
kzkpz_tc43  log  factor   4.9377201E-02  1.00e-10  1.00e+00  kz  1  0  1
kzkpz_tc44  log  factor   4.7266466E-02  1.00e-10  1.00e+00  kz  1  0  1
kzkpz_tc45  log  factor   2.6074299E-02  1.00e-10  1.00e+00  kz  1  0  1
kzkpz_tc46  log  factor   4.6626457E-02  1.00e-10  1.00e+00  kz  1  0  1
kzkpz_tc47  log  factor   4.4028636E-02  1.00e-10  1.00e+00  kz  1  0  1
kzkpz_tc48  log  factor   4.9485983E-02  1.00e-10  1.00e+00  kz  1  0  1
kzkpz_tc49  log  factor   5.1197977E-02  1.00e-10  1.00e+00  kz  1  0  1
kzkpz_tc50  log  factor   5.3981579E-02  1.00e-10  1.00e+00  kz  1  0  1
kzkpz_tc52  log  factor   5.2574142E-02  1.00e-10  1.00e+00  kz  1  0  1
kzkpz_tc53  log  factor   5.0852723E-02  1.00e-10  1.00e+00  kz  1  0  1
kzkpz_tc54  log  factor   5.4397057E-02  1.00e-10  1.00e+00  kz  1  0  1
kzkpz_tc55  log  factor   4.1432755E-02  1.00e-10  1.00e+00  kz  1  0  1
kzkpz_tc56  log  factor   4.0466827E-02  1.00e-10  1.00e+00  kz  1  0  1
kzkpz_tc57  log  factor   3.7464987E-02  1.00e-10  1.00e+00  kz  1  0  1
kzkpz_tc58  log  factor   4.3772227E-02  1.00e-10  1.00e+00  kz  1  0  1
kzkpz_tc59  log  factor   4.8128549E-02  1.00e-10  1.00e+00  kz  1  0  1
kzkpz_ec1  log  factor   0.1009408      1.00e-10  1.00e+00  kz  1  0  1
kzkpz_ec2  log  factor   0.1005421      1.00e-10  1.00e+00  kz  1  0  1
kzkpz_ec4  log  factor   0.1004920      1.00e-10  1.00e+00  kz  1  0  1
kzkpz_ec5  log  factor   9.9494053E-02  1.00e-10  1.00e+00  kz  1  0  1
kzkpz_ec7  log  factor   0.1003765      1.00e-10  1.00e+00  kz  1  0  1
kzkpz_ec8  log  factor   0.1008386      1.00e-10  1.00e+00  kz  1  0  1
kzkpz_ec9  log  factor   0.1005304      1.00e-10  1.00e+00  kz  1  0  1
kzkpz_ec10  log  factor   0.1005784      1.00e-10  1.00e+00  kz  1  0  1
kzkpz_ec11  log  factor   0.1001604      1.00e-10  1.00e+00  kz  1  0  1
kzkpz_ec13  log  factor   0.1001498      1.00e-10  1.00e+00  kz  1  0  1
kzkpz_ec14  log  factor   9.9872636E-02  1.00e-10  1.00e+00  kz  1  0  1
kzkpz_ec15  log  factor   0.1017476      1.00e-10  1.00e+00  kz  1  0  1
kzkpz_ec16  log  factor   0.1006086      1.00e-10  1.00e+00  kz  1  0  1
kzkpz_ec17  log  factor   0.1003439      1.00e-10  1.00e+00  kz  1  0  1
kzkpz_ec18  log  factor   0.1000864      1.00e-10  1.00e+00  kz  1  0  1
kzkpz_ww1  log  factor   0.1010193      1.00e-10  1.00e+00  kz  1  0  1
kzkpz_ww2  log  factor   0.1017952      1.00e-10  1.00e+00  kz  1  0  1
kzkpz_ww3  log  factor   9.9603046E-02  1.00e-10  1.00e+00  kz  1  0  1
kzkpz_ww4  log  factor   9.9473925E-02  1.00e-10  1.00e+00  kz  1  0  1
kzkpz_ww5  log  factor   9.9971808E-02  1.00e-10  1.00e+00  kz  1  0  1
kzkpz_ww6  log  factor   9.9894448E-02  1.00e-10  1.00e+00  kz  1  0  1
kzkpz_ww7  log  factor   0.1002794      1.00e-10  1.00e+00  kz  1  0  1
kzkpz_ww8  log  factor   0.1000480      1.00e-10  1.00e+00  kz  1  0  1
kzkpz_ww9  log  factor   0.1009167      1.00e-10  1.00e+00  kz  1  0  1
kzkpz_ww10  log  factor   0.1018378      1.00e-10  1.00e+00  kz  1  0  1
kzkpz_ww11  log  factor   0.1018904      1.00e-10  1.00e+00  kz  1  0  1
kzkpz_ww12  log  factor   9.4608089E-02  1.00e-10  1.00e+00  kz  1  0  1
kzkpz_ww13  log  factor   0.1018889      1.00e-10  1.00e+00  kz  1  0  1
kzkpz_ww14  log  factor   9.9891062E-02  1.00e-10  1.00e+00  kz  1  0  1
kzkpz_ww15  log  factor   0.1001390      1.00e-10  1.00e+00  kz  1  0  1
kzkpz_ww16  log  factor   0.1003398      1.00e-10  1.00e+00  kz  1  0  1
kzkpz_ww17  log  factor   0.1038192      1.00e-10  1.00e+00  kz  1  0  1
kzkpz_ww18  log  factor   0.1103698      1.00e-10  1.00e+00  kz  1  0  1
kzkpz_ww19  log  factor   0.1039324      1.00e-10  1.00e+00  kz  1  0  1
kzkpz_ww20  log  factor   0.1012275      1.00e-10  1.00e+00  kz  1  0  1
kzkpz_ww21  log  factor   0.1086799      1.00e-10  1.00e+00  kz  1  0  1
kzkpz_ww22  log  factor   0.1013663      1.00e-10  1.00e+00  kz  1  0  1
kzkpz_ww23  log  factor   9.8711956E-02  1.00e-10  1.00e+00  kz  1  0  1
kzkpz_ww24  log  factor   9.8146392E-02  1.00e-10  1.00e+00  kz  1  0  1
kzkpz_ww25  log  factor   9.7271209E-02  1.00e-10  1.00e+00  kz  1  0  1
kzkpz_ww26  log  factor   0.1016591      1.00e-10  1.00e+00  kz  1  0  1
kzkpz_ww27  log  factor   0.1012592      1.00e-10  1.00e+00  kz  1  0  1
kzkpz_ww28  log  factor   0.1066062      1.00e-10  1.00e+00  kz  1  0  1
kzkpz_ww29  log  factor   0.1059060      1.00e-10  1.00e+00  kz  1  0  1
kzkpz_ww30  log  factor   0.1012388      1.00e-10  1.00e+00  kz  1  0  1
kzkpz_ww31  log  factor   0.1006105      1.00e-10  1.00e+00  kz  1  0  1
kzkpz_ww32  log  factor   0.1009335      1.00e-10  1.00e+00  kz  1  0  1
kzkpz_ww33  log  factor   0.1002902      1.00e-10  1.00e+00  kz  1  0  1
kzkpz_ww34  log  factor   9.9063275E-02  1.00e-10  1.00e+00  kz  1  0  1
kzkpz_ww35  log  factor   9.5941064E-02  1.00e-10  1.00e+00  kz  1  0  1
kzkpz_ww36  log  factor   9.7965571E-02  1.00e-10  1.00e+00  kz  1  0  1
kzkpz_ww37  log  factor   0.1000397      1.00e-10  1.00e+00  kz  1  0  1
kzkpz_ww38  log  factor   9.9802370E-02  1.00e-10  1.00e+00  kz  1  0  1
kzkpz_ww39  log  factor   9.7480368E-02  1.00e-10  1.00e+00  kz  1  0  1
kzkpz_ww40  log  factor   9.8051288E-02  1.00e-10  1.00e+00  kz  1  0  1
kzkpz_ww41  log  factor   9.9043204E-02  1.00e-10  1.00e+00  kz  1  0  1
kzkpz_ww42  log  factor   9.7749525E-02  1.00e-10  1.00e+00  kz  1  0  1
kzkpz_ww43  log  factor   0.1005183      1.00e-10  1.00e+00  kz  1  0  1
kzkpz_ww44  log  factor   0.1004513      1.00e-10  1.00e+00  kz  1  0  1
kzkpz_ww45  log  factor   0.1003305      1.00e-10  1.00e+00  kz  1  0  1
kzkpz_ww46  log  factor   0.1009514      1.00e-10  1.00e+00  kz  1  0  1
kzkpz_ww47  log  factor   0.1003486      1.00e-10  1.00e+00  kz  1  0  1
kzkpz_ww48  log  factor   9.5755085E-02  1.00e-10  1.00e+00  kz  1  0  1
kzkpz_ww49  log  factor   8.9408977E-02  1.00e-10  1.00e+00  kz  1  0  1
kzkpz_ww50  log  factor   8.0404448E-02  1.00e-10  1.00e+00  kz  1  0  1
kzkpz_ww51  log  factor   5.8733849E-02  1.00e-10  1.00e+00  kz  1  0  1
kzkpz_ww52  log  factor   9.0725823E-02  1.00e-10  1.00e+00  kz  1  0  1
kzkpz_ww53  log  factor   9.9620795E-02  1.00e-10  1.00e+00  kz  1  0  1
kzkpz_ww54  log  factor   0.1010195      1.00e-10  1.00e+00  kz  1  0  1
kzkpz_ww55  log  factor   0.1023658      1.00e-10  1.00e+00  kz  1  0  1
kzkpz_ww56  log  factor   9.9273258E-02  1.00e-10  1.00e+00  kz  1  0  1
kzkpz_ww57  log  factor   0.1002444      1.00e-10  1.00e+00  kz  1  0  1
kzkpz_ww58  log  factor   0.1007325      1.00e-10  1.00e+00  kz  1  0  1
kzkpz_ww59  log  factor   9.3970742E-02  1.00e-10  1.00e+00  kz  1  0  1
kzkpz_ww60  log  factor   9.6207031E-02  1.00e-10  1.00e+00  kz  1  0  1
kzkpz_ww61  log  factor   0.1067708      1.00e-10  1.00e+00  kz  1  0  1
kzkpz_ww62  log  factor   6.4266208E-02  1.00e-10  1.00e+00  kz  1  0  1
kzkpz_ww63  log  factor   9.6526008E-02  1.00e-10  1.00e+00  kz  1  0  1
kzkpz_ww64  log  factor   9.1606896E-02  1.00e-10  1.00e+00  kz  1  0  1
kzkpz_ww65  log  factor   0.1024868      1.00e-10  1.00e+00  kz  1  0  1
kzkpz_ww66  log  factor   0.1009168      1.00e-10  1.00e+00  kz  1  0  1
kzkpz_ww67  log  factor   0.1000498      1.00e-10  1.00e+00  kz  1  0  1
kzkpz_ww68  log  factor   0.1048591      1.00e-10  1.00e+00  kz  1  0  1
kzkpz_ww69  log  factor   0.1021375      1.00e-10  1.00e+00  kz  1  0  1
kzkpz_ww70  log  factor   9.9016786E-02  1.00e-10  1.00e+00  kz  1  0  1
kzkpz_ww71  log  factor   8.6975331E-02  1.00e-10  1.00e+00  kz  1  0  1
kzkpz_ww72  log  factor   7.0405548E-02  1.00e-10  1.00e+00  kz  1  0  1
kzkpz_ww73  log  factor   9.4814172E-02  1.00e-10  1.00e+00  kz  1  0  1
kzkpz_ww74  log  factor   0.1003543      1.00e-10  1.00e+00  kz  1  0  1
kzkpz_ww75  log  factor   0.1002528      1.00e-10  1.00e+00  kz  1  0  1
kzkpz_ww76  log  factor   0.1009947      1.00e-10  1.00e+00  kz  1  0  1
kzkpz_ww77  log  factor   0.1001262      1.00e-10  1.00e+00  kz  1  0  1
kzkpz_ww78  log  factor   0.1001814      1.00e-10  1.00e+00  kz  1  0  1
kzkpz_ww79  log  factor   0.1014519      1.00e-10  1.00e+00  kz  1  0  1
kzkpz_ww80  log  factor   0.1009870      1.00e-10  1.00e+00  kz  1  0  1
kzkpz_ww81  log  factor   9.7519532E-02  1.00e-10  1.00e+00  kz  1  0  1
kzkpz_ww82  log  factor   9.8270625E-02  1.00e-10  1.00e+00  kz  1  0  1
kzkpz_ww83  log  factor   7.5500209E-02  1.00e-10  1.00e+00  kz  1  0  1
kzkpz_ww84  log  factor   9.8811912E-02  1.00e-10  1.00e+00  kz  1  0  1
kzkpz_ww85  log  factor   9.8822615E-02  1.00e-10  1.00e+00  kz  1  0  1
kzkpz_ww86  log  factor   9.9604044E-02  1.00e-10  1.00e+00  kz  1  0  1