pcf
* control data
restart estimation
599  4599  4  0  11
6  3  double  point  1  0  0
2.000000e+001  -3.000000e+000  3.000000e-001  1.000000e-002  10 999 lamforgive
0.1  1.000000e+001  1.000000e-003
1.000000e-001 noaui
0  1.000000e-003  3  3  1.000000e-002  3
0 0 0 REISAVEITN PARSAVEITN
* singular value decomposition
 1
 534  5.000000e-007
 1
* parameter groups
Kp     relative   1.000000e-002  0.000000e+000  switch  2.000000e+000  parabolic
Kz     relative   1.000000e-002  0.000000e+000  switch  2.000000e+000  parabolic
Rech relative 1.00E-02 0.00E+00 switch 2.00E+00 parabolic
SFR_cond relative 1.00E-02 0 switch 2 parabolic
* parameter data
kpkpx_tc2  log  factor    2.521068      1.00e-10  1.00e+10  kp  1  0  1
kpkpx_tc3  log  factor    3.309675      1.00e-10  1.00e+10  kp  1  0  1
kpkpx_tc4  log  factor    2.620387      1.00e-10  1.00e+10  kp  1  0  1
kpkpx_tc7  log  factor    5.067997      1.00e-10  1.00e+10  kp  1  0  1
kpkpx_tc8  log  factor    3.117611      1.00e-10  1.00e+10  kp  1  0  1
kpkpx_tc9  log  factor    3.144088      1.00e-10  1.00e+10  kp  1  0  1
kpkpx_tc10  log  factor    3.668974      1.00e-10  1.00e+10  kp  1  0  1
kpkpx_tc11  log  factor    2.106676      1.00e-10  1.00e+10  kp  1  0  1
kpkpx_tc12  log  factor    2.347532      1.00e-10  1.00e+10  kp  1  0  1
kpkpx_tc13  log  factor    4.118065      1.00e-10  1.00e+10  kp  1  0  1
kpkpx_tc14  log  factor    5.544199      1.00e-10  1.00e+10  kp  1  0  1
kpkpx_tc15  log  factor    2.164817      1.00e-10  1.00e+10  kp  1  0  1
kpkpx_tc16  log  factor    2.491822      1.00e-10  1.00e+10  kp  1  0  1
kpkpx_tc17  log  factor    1.012347      1.00e-10  1.00e+10  kp  1  0  1
kpkpx_tc18  log  factor    3.695839      1.00e-10  1.00e+10  kp  1  0  1
kpkpx_tc19  log  factor    4.519148      1.00e-10  1.00e+10  kp  1  0  1
kpkpx_tc20  log  factor    6.053856      1.00e-10  1.00e+10  kp  1  0  1
kpkpx_tc21  log  factor   0.4338025      1.00e-10  1.00e+10  kp  1  0  1
kpkpx_tc22  log  factor    3.173488      1.00e-10  1.00e+10  kp  1  0  1
kpkpx_tc23  log  factor    1.793111      1.00e-10  1.00e+10  kp  1  0  1
kpkpx_tc24  log  factor    2.859243      1.00e-10  1.00e+10  kp  1  0  1
kpkpx_tc25  log  factor    5.542820      1.00e-10  1.00e+10  kp  1  0  1
kpkpx_tc27  log  factor    2.875021      1.00e-10  1.00e+10  kp  1  0  1
kpkpx_tc28  log  factor    2.246075      1.00e-10  1.00e+10  kp  1  0  1
kpkpx_tc29  log  factor    2.465844      1.00e-10  1.00e+10  kp  1  0  1
kpkpx_tc30  log  factor    1.514851      1.00e-10  1.00e+10  kp  1  0  1
kpkpx_tc31  log  factor    4.761443      1.00e-10  1.00e+10  kp  1  0  1
kpkpx_tc32  log  factor    2.014009      1.00e-10  1.00e+10  kp  1  0  1
kpkpx_tc33  log  factor    2.134121      1.00e-10  1.00e+10  kp  1  0  1
kpkpx_tc34  log  factor    2.024566      1.00e-10  1.00e+10  kp  1  0  1
kpkpx_tc35  log  factor    2.193790      1.00e-10  1.00e+10  kp  1  0  1
kpkpx_tc36  log  factor    5.941358      1.00e-10  1.00e+10  kp  1  0  1
kpkpx_tc37  log  factor    6.167558      1.00e-10  1.00e+10  kp  1  0  1
kpkpx_tc38  log  factor    1.921881      1.00e-10  1.00e+10  kp  1  0  1
kpkpx_tc39  log  factor    3.529110      1.00e-10  1.00e+10  kp  1  0  1
kpkpx_tc40  log  factor    1.865571      1.00e-10  1.00e+10  kp  1  0  1
kpkpx_tc41  log  factor    2.264053      1.00e-10  1.00e+10  kp  1  0  1
kpkpx_tc42  log  factor    1.429187      1.00e-10  1.00e+10  kp  1  0  1
kpkpx_tc43  log  factor    2.448844      1.00e-10  1.00e+10  kp  1  0  1
kpkpx_tc44  log  factor    2.139788      1.00e-10  1.00e+10  kp  1  0  1
kpkpx_tc45  log  factor    5.832300      1.00e-10  1.00e+10  kp  1  0  1
kpkpx_tc46  log  factor    1.946978      1.00e-10  1.00e+10  kp  1  0  1
kpkpx_tc47  log  factor    1.864821      1.00e-10  1.00e+10  kp  1  0  1
kpkpx_tc48  log  factor    1.732502      1.00e-10  1.00e+10  kp  1  0  1
kpkpx_tc49  log  factor    2.577035      1.00e-10  1.00e+10  kp  1  0  1
kpkpx_tc50  log  factor    1.906011      1.00e-10  1.00e+10  kp  1  0  1
kpkpx_tc52  log  factor    2.044308      1.00e-10  1.00e+10  kp  1  0  1
kpkpx_tc53  log  factor    1.927676      1.00e-10  1.00e+10  kp  1  0  1
kpkpx_tc54  log  factor    1.942730      1.00e-10  1.00e+10  kp  1  0  1
kpkpx_tc55  log  factor    2.013397      1.00e-10  1.00e+10  kp  1  0  1
kpkpx_tc56  log  factor    1.888989      1.00e-10  1.00e+10  kp  1  0  1
kpkpx_tc57  log  factor    1.211558      1.00e-10  1.00e+10  kp  1  0  1
kpkpx_tc58  log  factor    1.712043      1.00e-10  1.00e+10  kp  1  0  1
kpkpx_tc59  log  factor    2.218980      1.00e-10  1.00e+10  kp  1  0  1
kpkpx_ec1  log  factor    7.165283      1.00e-10  1.00e+10  kp  1  0  1
kpkpx_ec2  log  factor    12.79039      1.00e-10  1.00e+10  kp  1  0  1
kpkpx_ec4  log  factor    5.988845      1.00e-10  1.00e+10  kp  1  0  1
kpkpx_ec5  log  factor    6.053939      1.00e-10  1.00e+10  kp  1  0  1
kpkpx_ec7  log  factor    12.28071      1.00e-10  1.00e+10  kp  1  0  1
kpkpx_ec8  log  factor    6.625714      1.00e-10  1.00e+10  kp  1  0  1
kpkpx_ec9  log  factor    7.210516      1.00e-10  1.00e+10  kp  1  0  1
kpkpx_ec10  log  factor    10.33656      1.00e-10  1.00e+10  kp  1  0  1
kpkpx_ec11  log  factor    4.555428      1.00e-10  1.00e+10  kp  1  0  1
kpkpx_ec13  log  factor    12.47976      1.00e-10  1.00e+10  kp  1  0  1
kpkpx_ec14  log  factor    6.870715      1.00e-10  1.00e+10  kp  1  0  1
kpkpx_ec15  log  factor    6.954864      1.00e-10  1.00e+10  kp  1  0  1
kpkpx_ec16  log  factor    6.694111      1.00e-10  1.00e+10  kp  1  0  1
kpkpx_ec17  log  factor    5.856728      1.00e-10  1.00e+10  kp  1  0  1
kpkpx_ec18  log  factor    11.99872      1.00e-10  1.00e+10  kp  1  0  1
kpkpx_ww1  log  factor    5.296256      1.00e-10  1.00e+10  kp  1  0  1
kpkpx_ww2  log  factor    2.830051      1.00e-10  1.00e+10  kp  1  0  1
kpkpx_ww3  log  factor    5.401985      1.00e-10  1.00e+10  kp  1  0  1
kpkpx_ww4  log  factor    3.692047      1.00e-10  1.00e+10  kp  1  0  1
kpkpx_ww5  log  factor    4.371301      1.00e-10  1.00e+10  kp  1  0  1
kpkpx_ww6  log  factor    2.921779      1.00e-10  1.00e+10  kp  1  0  1
kpkpx_ww7  log  factor    3.905966      1.00e-10  1.00e+10  kp  1  0  1
kpkpx_ww8  log  factor    6.393486      1.00e-10  1.00e+10  kp  1  0  1
kpkpx_ww9  log  factor    8.290214      1.00e-10  1.00e+10  kp  1  0  1
kpkpx_ww10  log  factor    5.750166      1.00e-10  1.00e+10  kp  1  0  1
kpkpx_ww11  log  factor    4.232421      1.00e-10  1.00e+10  kp  1  0  1
kpkpx_ww12  log  factor    4.869564      1.00e-10  1.00e+10  kp  1  0  1
kpkpx_ww13  log  factor    3.489025      1.00e-10  1.00e+10  kp  1  0  1
kpkpx_ww14  log  factor    4.156004      1.00e-10  1.00e+10  kp  1  0  1
kpkpx_ww15  log  factor    3.197735      1.00e-10  1.00e+10  kp  1  0  1
kpkpx_ww16  log  factor    5.629280      1.00e-10  1.00e+10  kp  1  0  1
kpkpx_ww17  log  factor    5.304823      1.00e-10  1.00e+10  kp  1  0  1
kpkpx_ww18  log  factor    4.292306      1.00e-10  1.00e+10  kp  1  0  1
kpkpx_ww19  log  factor    9.227293      1.00e-10  1.00e+10  kp  1  0  1
kpkpx_ww20  log  factor    10.06352      1.00e-10  1.00e+10  kp  1  0  1
kpkpx_ww21  log  factor    9.163994      1.00e-10  1.00e+10  kp  1  0  1
kpkpx_ww22  log  factor    5.206833      1.00e-10  1.00e+10  kp  1  0  1
kpkpx_ww23  log  factor    7.051373      1.00e-10  1.00e+10  kp  1  0  1
kpkpx_ww24  log  factor    3.128048      1.00e-10  1.00e+10  kp  1  0  1
kpkpx_ww25  log  factor    10.45463      1.00e-10  1.00e+10  kp  1  0  1
kpkpx_ww26  log  factor    7.743110      1.00e-10  1.00e+10  kp  1  0  1
kpkpx_ww27  log  factor    3.692219      1.00e-10  1.00e+10  kp  1  0  1
kpkpx_ww28  log  factor    5.136887      1.00e-10  1.00e+10  kp  1  0  1
kpkpx_ww29  log  factor    5.467252      1.00e-10  1.00e+10  kp  1  0  1
kpkpx_ww30  log  factor    3.876699      1.00e-10  1.00e+10  kp  1  0  1
kpkpx_ww31  log  factor    3.873082      1.00e-10  1.00e+10  kp  1  0  1
kpkpx_ww32  log  factor    5.430942      1.00e-10  1.00e+10  kp  1  0  1
kpkpx_ww33  log  factor    4.305290      1.00e-10  1.00e+10  kp  1  0  1
kpkpx_ww34  log  factor    4.064400      1.00e-10  1.00e+10  kp  1  0  1
kpkpx_ww35  log  factor    7.882160      1.00e-10  1.00e+10  kp  1  0  1
kpkpx_ww36  log  factor    4.714067      1.00e-10  1.00e+10  kp  1  0  1
kpkpx_ww37  log  factor    3.361339      1.00e-10  1.00e+10  kp  1  0  1
kpkpx_ww38  log  factor    4.078173      1.00e-10  1.00e+10  kp  1  0  1
kpkpx_ww39  log  factor    4.885297      1.00e-10  1.00e+10  kp  1  0  1
kpkpx_ww40  log  factor    4.046313      1.00e-10  1.00e+10  kp  1  0  1
kpkpx_ww41  log  factor    4.882704      1.00e-10  1.00e+10  kp  1  0  1
kpkpx_ww42  log  factor    2.571390      1.00e-10  1.00e+10  kp  1  0  1
kpkpx_ww43  log  factor    4.526362      1.00e-10  1.00e+10  kp  1  0  1
kpkpx_ww44  log  factor    6.679070      1.00e-10  1.00e+10  kp  1  0  1
kpkpx_ww45  log  factor    9.908324      1.00e-10  1.00e+10  kp  1  0  1
kpkpx_ww46  log  factor    3.913899      1.00e-10  1.00e+10  kp  1  0  1
kpkpx_ww47  log  factor    6.280195      1.00e-10  1.00e+10  kp  1  0  1
kpkpx_ww48  log  factor    6.008372      1.00e-10  1.00e+10  kp  1  0  1
kpkpx_ww49  log  factor    7.641036      1.00e-10  1.00e+10  kp  1  0  1
kpkpx_ww50  log  factor    2.019356      1.00e-10  1.00e+10  kp  1  0  1
kpkpx_ww51  log  factor   0.2917345      1.00e-10  1.00e+10  kp  1  0  1
kpkpx_ww52  log  factor    6.808748      1.00e-10  1.00e+10  kp  1  0  1
kpkpx_ww53  log  factor    4.841536      1.00e-10  1.00e+10  kp  1  0  1
kpkpx_ww54  log  factor    5.229225      1.00e-10  1.00e+10  kp  1  0  1
kpkpx_ww55  log  factor    3.572949      1.00e-10  1.00e+10  kp  1  0  1
kpkpx_ww56  log  factor    4.626226      1.00e-10  1.00e+10  kp  1  0  1
kpkpx_ww57  log  factor    28.95259      1.00e-10  1.00e+10  kp  1  0  1
kpkpx_ww58  log  factor    36.57731      1.00e-10  1.00e+10  kp  1  0  1
kpkpx_ww59  log  factor    4.815428      1.00e-10  1.00e+10  kp  1  0  1
kpkpx_ww60  log  factor    6.940090      1.00e-10  1.00e+10  kp  1  0  1
kpkpx_ww61  log  factor    3.845185      1.00e-10  1.00e+10  kp  1  0  1
kpkpx_ww62  log  factor   0.3325586      1.00e-10  1.00e+10  kp  1  0  1
kpkpx_ww63  log  factor    3.509939      1.00e-10  1.00e+10  kp  1  0  1
kpkpx_ww64  log  factor    5.575321      1.00e-10  1.00e+10  kp  1  0  1
kpkpx_ww65  log  factor    3.523843      1.00e-10  1.00e+10  kp  1  0  1
kpkpx_ww66  log  factor    3.067790      1.00e-10  1.00e+10  kp  1  0  1
kpkpx_ww67  log  factor    6.055001      1.00e-10  1.00e+10  kp  1  0  1
kpkpx_ww68  log  factor    8.882003      1.00e-10  1.00e+10  kp  1  0  1
kpkpx_ww69  log  factor    8.275770      1.00e-10  1.00e+10  kp  1  0  1
kpkpx_ww70  log  factor    3.995863      1.00e-10  1.00e+10  kp  1  0  1
kpkpx_ww71  log  factor    4.995873      1.00e-10  1.00e+10  kp  1  0  1
kpkpx_ww72  log  factor    6.618349      1.00e-10  1.00e+10  kp  1  0  1
kpkpx_ww73  log  factor    9.287603      1.00e-10  1.00e+10  kp  1  0  1
kpkpx_ww74  log  factor    4.199765      1.00e-10  1.00e+10  kp  1  0  1
kpkpx_ww75  log  factor    3.136650      1.00e-10  1.00e+10  kp  1  0  1
kpkpx_ww76  log  factor    4.134019      1.00e-10  1.00e+10  kp  1  0  1
kpkpx_ww77  log  factor    3.943804      1.00e-10  1.00e+10  kp  1  0  1
kpkpx_ww78  log  factor    4.052519      1.00e-10  1.00e+10  kp  1  0  1
kpkpx_ww79  log  factor    4.691337      1.00e-10  1.00e+10  kp  1  0  1
kpkpx_ww80  log  factor    7.611450      1.00e-10  1.00e+10  kp  1  0  1
kpkpx_ww81  log  factor    4.864323      1.00e-10  1.00e+10  kp  1  0  1
kpkpx_ww82  log  factor    8.772826      1.00e-10  1.00e+10  kp  1  0  1
kpkpx_ww83  log  factor    7.560772      1.00e-10  1.00e+10  kp  1  0  1
kpkpx_ww84  log  factor    5.672830      1.00e-10  1.00e+10  kp  1  0  1
kpkpx_ww85  log  factor    6.558490      1.00e-10  1.00e+10  kp  1  0  1
kpkpx_ww86  log  factor    6.311662      1.00e-10  1.00e+10  kp  1  0  1
kpkpx_ww87  log  factor    5.463049      1.00e-10  1.00e+10  kp  1  0  1
kpkpx_ww88  log  factor    4.090231      1.00e-10  1.00e+10  kp  1  0  1
kpkpx_ww89  log  factor    6.135265      1.00e-10  1.00e+10  kp  1  0  1
kpkpx_ww90  log  factor    19.74982      1.00e-10  1.00e+10  kp  1  0  1
kpkpx_ww91  log  factor    3.097358      1.00e-10  1.00e+10  kp  1  0  1
kpkpx_ww92  log  factor    8.853848      1.00e-10  1.00e+10  kp  1  0  1
kpkpx_ww93  log  factor    4.219956      1.00e-10  1.00e+10  kp  1  0  1
kpkpx_ww94  log  factor    5.385259      1.00e-10  1.00e+10  kp  1  0  1
kpkpx_ww95  log  factor    5.670409      1.00e-10  1.00e+10  kp  1  0  1
kpkpx_ww96  log  factor    3.878025      1.00e-10  1.00e+10  kp  1  0  1
kpkpx_ww97  log  factor    5.764653      1.00e-10  1.00e+10  kp  1  0  1
kpkpx_ww98  log  factor    5.508987      1.00e-10  1.00e+10  kp  1  0  1
kpkpx_ww99  log  factor    3.236915      1.00e-10  1.00e+10  kp  1  0  1
kpkpx_ms1  log  factor    6.002889      1.00e-10  1.00e+10  kp  1  0  1
kpkpx_ms2  log  factor    5.893256      1.00e-10  1.00e+10  kp  1  0  1
kpkpx_ms3  log  factor    13.38236      1.00e-10  1.00e+10  kp  1  0  1
kpkpx_ms4  log  factor    2.593271      1.00e-10  1.00e+10  kp  1  0  1
kpkpx_ms5  log  factor    4.561990      1.00e-10  1.00e+10  kp  1  0  1
kpkpx_ms6  log  factor    4.734597      1.00e-10  1.00e+10  kp  1  0  1
kpkpx_ms7  log  factor    2.631503      1.00e-10  1.00e+10  kp  1  0  1
kpkpx_ms8  log  factor    3.562493      1.00e-10  1.00e+10  kp  1  0  1
kpkpx_ms9  log  factor    5.495098      1.00e-10  1.00e+10  kp  1  0  1
kpkpx_ms10  log  factor    6.458429      1.00e-10  1.00e+10  kp  1  0  1
kpkpx_ms11  log  factor    3.807884      1.00e-10  1.00e+10  kp  1  0  1
kpkpx_ms12  log  factor    11.28136      1.00e-10  1.00e+10  kp  1  0  1
kpkpx_ms13  log  factor    3.578589      1.00e-10  1.00e+10  kp  1  0  1
kpkpx_ms14  log  factor    10.15818      1.00e-10  1.00e+10  kp  1  0  1
kpkpx_ms15  log  factor    5.898012      1.00e-10  1.00e+10  kp  1  0  1
kpkpx_ms16  log  factor    6.886126      1.00e-10  1.00e+10  kp  1  0  1
kpkpx_ms17  log  factor    4.172249      1.00e-10  1.00e+10  kp  1  0  1
kpkpx_ms18  log  factor    5.753662      1.00e-10  1.00e+10  kp  1  0  1
kpkpx_ms19  log  factor    38.52259      1.00e-10  1.00e+10  kp  1  0  1
kpkpx_ms20  log  factor    6.231459      1.00e-10  1.00e+10  kp  1  0  1
kpkpx_ms21  log  factor    6.734812      1.00e-10  1.00e+10  kp  1  0  1
kpkpx_ms22  log  factor    6.640097      1.00e-10  1.00e+10  kp  1  0  1
kpkpx_ms23  log  factor    16.12850      1.00e-10  1.00e+10  kp  1  0  1
kpkpx_ms24  log  factor    9.237316      1.00e-10  1.00e+10  kp  1  0  1
kpkpx_ms25  log  factor    10.29590      1.00e-10  1.00e+10  kp  1  0  1
kpkpx_ms26  log  factor    7.606702      1.00e-10  1.00e+10  kp  1  0  1
kpkpx_ms27  log  factor    12.38198      1.00e-10  1.00e+10  kp  1  0  1
kpkpx_ms28  log  factor    4.798550      1.00e-10  1.00e+10  kp  1  0  1
kpkpx_ms29  log  factor    11.37068      1.00e-10  1.00e+10  kp  1  0  1
kpkpx_ms30  log  factor    7.678610      1.00e-10  1.00e+10  kp  1  0  1
kpkpx_ms31  log  factor    4.139962      1.00e-10  1.00e+10  kp  1  0  1
kpkpx_ms32  log  factor    4.896724      1.00e-10  1.00e+10  kp  1  0  1
kpkpx_ms33  log  factor    8.794158      1.00e-10  1.00e+10  kp  1  0  1
kpkpx_ms34  log  factor    10.76025      1.00e-10  1.00e+10  kp  1  0  1
kpkpx_ms35  log  factor    4.862305      1.00e-10  1.00e+10  kp  1  0  1
kpkpx_ms36  log  factor    5.168190      1.00e-10  1.00e+10  kp  1  0  1
kpkpx_ms37  log  factor    4.632834      1.00e-10  1.00e+10  kp  1  0  1
kpkpx_ms38  log  factor    1.507346      1.00e-10  1.00e+10  kp  1  0  1
kpkpx_ms39  log  factor    5.408445      1.00e-10  1.00e+10  kp  1  0  1
kpkpx_ms40  log  factor    10.71599      1.00e-10  1.00e+10  kp  1  0  1
kpkpx_ms41  log  factor    8.244361      1.00e-10  1.00e+10  kp  1  0  1
kpkpx_ms42  log  factor    3.859580      1.00e-10  1.00e+10  kp  1  0  1
kpkpx_ms43  log  factor    10.86817      1.00e-10  1.00e+10  kp  1  0  1
kpkpx_ms44  log  factor    10.83153      1.00e-10  1.00e+10  kp  1  0  1
kpkpx_ms45  log  factor    5.353508      1.00e-10  1.00e+10  kp  1  0  1
kpkpx_ms46  log  factor    8.279843      1.00e-10  1.00e+10  kp  1  0  1
kpkpx_ms47  log  factor    9.389139      1.00e-10  1.00e+10  kp  1  0  1
kpkpx_ms48  log  factor    1.838934      1.00e-10  1.00e+10  kp  1  0  1
kpkpx_ms49  log  factor   0.3432633      1.00e-10  1.00e+10  kp  1  0  1
kpkpx_ms50  log  factor    11.34858      1.00e-10  1.00e+10  kp  1  0  1
kpkpx_ms51  log  factor    11.04709      1.00e-10  1.00e+10  kp  1  0  1
kpkpx_ms52  log  factor    20.40967      1.00e-10  1.00e+10  kp  1  0  1
kpkpx_ms53  log  factor    4.560119      1.00e-10  1.00e+10  kp  1  0  1
kpkpx_ms54  log  factor    6.416730      1.00e-10  1.00e+10  kp  1  0  1
kpkpx_ms55  log  factor    8.534088      1.00e-10  1.00e+10  kp  1  0  1
kpkpx_ms56  log  factor    6.605839      1.00e-10  1.00e+10  kp  1  0  1
kpkpx_ms57  log  factor    14.92267      1.00e-10  1.00e+10  kp  1  0  1
kpkpx_ms58  log  factor    2.798648      1.00e-10  1.00e+10  kp  1  0  1
kpkpx_ms59  log  factor    4.074469      1.00e-10  1.00e+10  kp  1  0  1
kpkpx_ms60  log  factor    3.961405      1.00e-10  1.00e+10  kp  1  0  1
kpkpx_ms61  log  factor    20.35955      1.00e-10  1.00e+10  kp  1  0  1
kpkpx_ms62  log  factor    21.98499      1.00e-10  1.00e+10  kp  1  0  1
kpkpx_ms63  log  factor    4.411404      1.00e-10  1.00e+10  kp  1  0  1
kpkpx_ms64  log  factor    4.472930      1.00e-10  1.00e+10  kp  1  0  1
kpkpx_ms65  log  factor    8.092403      1.00e-10  1.00e+10  kp  1  0  1
kpkpx_ms66  log  factor    4.281695      1.00e-10  1.00e+10  kp  1  0  1
kpkpx_ms67  log  factor    6.776404      1.00e-10  1.00e+10  kp  1  0  1
kpkpx_ms68  log  factor    16.46496      1.00e-10  1.00e+10  kp  1  0  1
kpkpx_ms69  log  factor    6.014749      1.00e-10  1.00e+10  kp  1  0  1
kpkpx_ms70  log  factor    6.038880      1.00e-10  1.00e+10  kp  1  0  1
kpkpx_ms71  log  factor    6.961370      1.00e-10  1.00e+10  kp  1  0  1
kpkpx_ms72  log  factor    8.059503      1.00e-10  1.00e+10  kp  1  0  1
kpkpx_ms73  log  factor    8.098853      1.00e-10  1.00e+10  kp  1  0  1
kpkpx_ms74  log  factor    7.095460      1.00e-10  1.00e+10  kp  1  0  1
kpkpx_ms75  log  factor    3.819730      1.00e-10  1.00e+10  kp  1  0  1
kpkpx_ms76  log  factor    5.263576      1.00e-10  1.00e+10  kp  1  0  1
kpkpx_ms77  log  factor    7.462563      1.00e-10  1.00e+10  kp  1  0  1
kpkpx_ms78  log  factor    6.740520      1.00e-10  1.00e+10  kp  1  0  1
kpkpx_ms79  log  factor    4.537845      1.00e-10  1.00e+10  kp  1  0  1
kpkpx_ms80  log  factor    5.363333      1.00e-10  1.00e+10  kp  1  0  1
kpkpx_ms81  log  factor    12.18425      1.00e-10  1.00e+10  kp  1  0  1
kpkpx_ms82  log  factor    5.589896      1.00e-10  1.00e+10  kp  1  0  1
kpkpx_ms83  log  factor    5.919793      1.00e-10  1.00e+10  kp  1  0  1
kpkpx_ms84  log  factor    13.78300      1.00e-10  1.00e+10  kp  1  0  1
kpkpx_ms85  log  factor    7.562892      1.00e-10  1.00e+10  kp  1  0  1
kpkpx_ms86  log  factor    5.816269      1.00e-10  1.00e+10  kp  1  0  1
kpkpx_ms87  log  factor    3.861547      1.00e-10  1.00e+10  kp  1  0  1
kpkpx_ms88  log  factor    9.442459      1.00e-10  1.00e+10  kp  1  0  1
kpkpx_ms89  log  factor    3.105081      1.00e-10  1.00e+10  kp  1  0  1
kpkpx_ms90  log  factor    7.825854      1.00e-10  1.00e+10  kp  1  0  1
kpkpx_ms91  log  factor    3.269600      1.00e-10  1.00e+10  kp  1  0  1
kpkpx_ms92  log  factor    4.777311      1.00e-10  1.00e+10  kp  1  0  1
kpkpx_ms93  log  factor    6.872470      1.00e-10  1.00e+10  kp  1  0  1
kpkpx_ms94  log  factor    3.929648      1.00e-10  1.00e+10  kp  1  0  1
kpkpx_ms95  log  factor    3.860925      1.00e-10  1.00e+10  kp  1  0  1
kpkpx_ms96  log  factor    2.938369      1.00e-10  1.00e+10  kp  1  0  1
kpkpx_ms97  log  factor    4.590652      1.00e-10  1.00e+10  kp  1  0  1
kpkpx_ms98  log  factor    8.769159      1.00e-10  1.00e+10  kp  1  0  1
kpkpx_ms99  log  factor    5.014640      1.00e-10  1.00e+10  kp  1  0  1
kzkpz_tc2  log  factor   9.5842362E-02  1.00e-10  1.00e+00  kz  1  0  1
kzkpz_tc3  log  factor   7.3139994E-02  1.00e-10  1.00e+00  kz  1  0  1
kzkpz_tc4  log  factor   9.6845040E-02  1.00e-10  1.00e+00  kz  1  0  1
kzkpz_tc7  log  factor   8.0425853E-02  1.00e-10  1.00e+00  kz  1  0  1
kzkpz_tc8  log  factor   9.0853285E-02  1.00e-10  1.00e+00  kz  1  0  1
kzkpz_tc9  log  factor   0.1404670      1.00e-10  1.00e+00  kz  1  0  1
kzkpz_tc10  log  factor   8.7996481E-02  1.00e-10  1.00e+00  kz  1  0  1
kzkpz_tc11  log  factor   0.1195411      1.00e-10  1.00e+00  kz  1  0  1
kzkpz_tc12  log  factor   9.6620705E-02  1.00e-10  1.00e+00  kz  1  0  1
kzkpz_tc13  log  factor   8.5738323E-02  1.00e-10  1.00e+00  kz  1  0  1
kzkpz_tc14  log  factor   0.1297556      1.00e-10  1.00e+00  kz  1  0  1
kzkpz_tc15  log  factor   7.2679786E-02  1.00e-10  1.00e+00  kz  1  0  1
kzkpz_tc16  log  factor   9.4861527E-02  1.00e-10  1.00e+00  kz  1  0  1
kzkpz_tc17  log  factor   6.2809882E-02  1.00e-10  1.00e+00  kz  1  0  1
kzkpz_tc18  log  factor   0.1927983      1.00e-10  1.00e+00  kz  1  0  1
kzkpz_tc19  log  factor   8.8435810E-02  1.00e-10  1.00e+00  kz  1  0  1
kzkpz_tc20  log  factor   9.2805480E-02  1.00e-10  1.00e+00  kz  1  0  1
kzkpz_tc21  log  factor   0.1254097      1.00e-10  1.00e+00  kz  1  0  1
kzkpz_tc22  log  factor   9.6874851E-02  1.00e-10  1.00e+00  kz  1  0  1
kzkpz_tc23  log  factor   9.0445156E-02  1.00e-10  1.00e+00  kz  1  0  1
kzkpz_tc24  log  factor   0.1079794      1.00e-10  1.00e+00  kz  1  0  1
kzkpz_tc25  log  factor   9.7650684E-02  1.00e-10  1.00e+00  kz  1  0  1
kzkpz_tc27  log  factor   9.7594741E-02  1.00e-10  1.00e+00  kz  1  0  1
kzkpz_tc28  log  factor   0.1553771      1.00e-10  1.00e+00  kz  1  0  1
kzkpz_tc29  log  factor   0.1110635      1.00e-10  1.00e+00  kz  1  0  1
kzkpz_tc30  log  factor   0.6043924      1.00e-10  1.00e+00  kz  1  0  1
kzkpz_tc31  log  factor   8.5077801E-02  1.00e-10  1.00e+00  kz  1  0  1
kzkpz_tc32  log  factor   0.1007728      1.00e-10  1.00e+00  kz  1  0  1
kzkpz_tc33  log  factor   0.1750216      1.00e-10  1.00e+00  kz  1  0  1
kzkpz_tc34  log  factor   7.0705468E-02  1.00e-10  1.00e+00  kz  1  0  1
kzkpz_tc35  log  factor   8.0554980E-02  1.00e-10  1.00e+00  kz  1  0  1
kzkpz_tc36  log  factor   0.1097677      1.00e-10  1.00e+00  kz  1  0  1
kzkpz_tc37  log  factor   8.8067175E-02  1.00e-10  1.00e+00  kz  1  0  1
kzkpz_tc38  log  factor   6.6041954E-02  1.00e-10  1.00e+00  kz  1  0  1
kzkpz_tc39  log  factor   5.1284220E-02  1.00e-10  1.00e+00  kz  1  0  1
kzkpz_tc40  log  factor   0.1028042      1.00e-10  1.00e+00  kz  1  0  1
kzkpz_tc41  log  factor   0.1282249      1.00e-10  1.00e+00  kz  1  0  1
kzkpz_tc42  log  factor   0.1107485      1.00e-10  1.00e+00  kz  1  0  1
kzkpz_tc43  log  factor   8.1761835E-02  1.00e-10  1.00e+00  kz  1  0  1
kzkpz_tc44  log  factor   0.1089243      1.00e-10  1.00e+00  kz  1  0  1
kzkpz_tc45  log  factor   0.1252573      1.00e-10  1.00e+00  kz  1  0  1
kzkpz_tc46  log  factor   9.2428146E-02  1.00e-10  1.00e+00  kz  1  0  1
kzkpz_tc47  log  factor   0.1184873      1.00e-10  1.00e+00  kz  1  0  1
kzkpz_tc48  log  factor   0.1066453      1.00e-10  1.00e+00  kz  1  0  1
kzkpz_tc49  log  factor   0.1178071      1.00e-10  1.00e+00  kz  1  0  1
kzkpz_tc50  log  factor   9.0949349E-02  1.00e-10  1.00e+00  kz  1  0  1
kzkpz_tc52  log  factor   7.2582936E-02  1.00e-10  1.00e+00  kz  1  0  1
kzkpz_tc53  log  factor   6.9293726E-02  1.00e-10  1.00e+00  kz  1  0  1
kzkpz_tc54  log  factor   5.8523707E-02  1.00e-10  1.00e+00  kz  1  0  1
kzkpz_tc55  log  factor   0.1270659      1.00e-10  1.00e+00  kz  1  0  1
kzkpz_tc56  log  factor   7.4036468E-02  1.00e-10  1.00e+00  kz  1  0  1
kzkpz_tc57  log  factor   0.1247581      1.00e-10  1.00e+00  kz  1  0  1
kzkpz_tc58  log  factor   9.6101466E-02  1.00e-10  1.00e+00  kz  1  0  1
kzkpz_tc59  log  factor   0.1621120      1.00e-10  1.00e+00  kz  1  0  1
kzkpz_ec1  log  factor   7.1372635E-02  1.00e-10  1.00e+00  kz  1  0  1
kzkpz_ec2  log  factor   6.3277659E-02  1.00e-10  1.00e+00  kz  1  0  1
kzkpz_ec4  log  factor   0.1150270      1.00e-10  1.00e+00  kz  1  0  1
kzkpz_ec5  log  factor   0.1649026      1.00e-10  1.00e+00  kz  1  0  1
kzkpz_ec7  log  factor   7.6458502E-02  1.00e-10  1.00e+00  kz  1  0  1
kzkpz_ec8  log  factor   9.1075984E-02  1.00e-10  1.00e+00  kz  1  0  1
kzkpz_ec9  log  factor   0.1837905      1.00e-10  1.00e+00  kz  1  0  1
kzkpz_ec10  log  factor   9.7998110E-02  1.00e-10  1.00e+00  kz  1  0  1
kzkpz_ec11  log  factor   0.1418549      1.00e-10  1.00e+00  kz  1  0  1
kzkpz_ec13  log  factor   0.1238011      1.00e-10  1.00e+00  kz  1  0  1
kzkpz_ec14  log  factor   0.1240881      1.00e-10  1.00e+00  kz  1  0  1
kzkpz_ec15  log  factor   7.4503230E-02  1.00e-10  1.00e+00  kz  1  0  1
kzkpz_ec16  log  factor   6.3610190E-02  1.00e-10  1.00e+00  kz  1  0  1
kzkpz_ec17  log  factor   8.1604266E-02  1.00e-10  1.00e+00  kz  1  0  1
kzkpz_ec18  log  factor   9.9005205E-02  1.00e-10  1.00e+00  kz  1  0  1
kzkpz_ww1  log  factor   7.0323128E-02  1.00e-10  1.00e+00  kz  1  0  1
kzkpz_ww2  log  factor   6.8823855E-02  1.00e-10  1.00e+00  kz  1  0  1
kzkpz_ww3  log  factor   8.3469295E-02  1.00e-10  1.00e+00  kz  1  0  1
kzkpz_ww4  log  factor   0.1932980      1.00e-10  1.00e+00  kz  1  0  1
kzkpz_ww5  log  factor   8.4403850E-02  1.00e-10  1.00e+00  kz  1  0  1
kzkpz_ww6  log  factor   0.1546946      1.00e-10  1.00e+00  kz  1  0  1
kzkpz_ww7  log  factor   0.1041746      1.00e-10  1.00e+00  kz  1  0  1
kzkpz_ww8  log  factor   5.0339082E-02  1.00e-10  1.00e+00  kz  1  0  1
kzkpz_ww9  log  factor   0.1084037      1.00e-10  1.00e+00  kz  1  0  1
kzkpz_ww10  log  factor   0.1329717      1.00e-10  1.00e+00  kz  1  0  1
kzkpz_ww11  log  factor   7.9457065E-02  1.00e-10  1.00e+00  kz  1  0  1
kzkpz_ww12  log  factor   5.4487565E-02  1.00e-10  1.00e+00  kz  1  0  1
kzkpz_ww13  log  factor   6.5937055E-02  1.00e-10  1.00e+00  kz  1  0  1
kzkpz_ww14  log  factor   6.0765152E-02  1.00e-10  1.00e+00  kz  1  0  1
kzkpz_ww15  log  factor   6.7589229E-02  1.00e-10  1.00e+00  kz  1  0  1
kzkpz_ww16  log  factor   9.5499944E-02  1.00e-10  1.00e+00  kz  1  0  1
kzkpz_ww17  log  factor   9.9456867E-02  1.00e-10  1.00e+00  kz  1  0  1
kzkpz_ww18  log  factor   8.1113672E-02  1.00e-10  1.00e+00  kz  1  0  1
kzkpz_ww19  log  factor   7.0582721E-02  1.00e-10  1.00e+00  kz  1  0  1
kzkpz_ww20  log  factor   0.1626121      1.00e-10  1.00e+00  kz  1  0  1
kzkpz_ww21  log  factor   6.8972288E-02  1.00e-10  1.00e+00  kz  1  0  1
kzkpz_ww22  log  factor   0.1584450      1.00e-10  1.00e+00  kz  1  0  1
kzkpz_ww23  log  factor   0.1342632      1.00e-10  1.00e+00  kz  1  0  1
kzkpz_ww24  log  factor   8.0054170E-02  1.00e-10  1.00e+00  kz  1  0  1
kzkpz_ww25  log  factor   8.1871631E-02  1.00e-10  1.00e+00  kz  1  0  1
kzkpz_ww26  log  factor   7.0185740E-02  1.00e-10  1.00e+00  kz  1  0  1
kzkpz_ww27  log  factor   9.9660625E-02  1.00e-10  1.00e+00  kz  1  0  1
kzkpz_ww28  log  factor   7.6326559E-02  1.00e-10  1.00e+00  kz  1  0  1
kzkpz_ww29  log  factor   8.9141776E-02  1.00e-10  1.00e+00  kz  1  0  1
kzkpz_ww30  log  factor   0.1207063      1.00e-10  1.00e+00  kz  1  0  1
kzkpz_ww31  log  factor   6.7137224E-02  1.00e-10  1.00e+00  kz  1  0  1
kzkpz_ww32  log  factor   9.5480484E-02  1.00e-10  1.00e+00  kz  1  0  1
kzkpz_ww33  log  factor   7.8227630E-02  1.00e-10  1.00e+00  kz  1  0  1
kzkpz_ww34  log  factor   9.9068329E-02  1.00e-10  1.00e+00  kz  1  0  1
kzkpz_ww35  log  factor   7.0168385E-02  1.00e-10  1.00e+00  kz  1  0  1
kzkpz_ww36  log  factor   6.9677521E-02  1.00e-10  1.00e+00  kz  1  0  1
kzkpz_ww37  log  factor   0.1232380      1.00e-10  1.00e+00  kz  1  0  1
kzkpz_ww38  log  factor   9.2746985E-02  1.00e-10  1.00e+00  kz  1  0  1
kzkpz_ww39  log  factor   8.5494297E-02  1.00e-10  1.00e+00  kz  1  0  1
kzkpz_ww40  log  factor   6.4786966E-02  1.00e-10  1.00e+00  kz  1  0  1
kzkpz_ww41  log  factor   8.0077041E-02  1.00e-10  1.00e+00  kz  1  0  1
kzkpz_ww42  log  factor   9.4051856E-02  1.00e-10  1.00e+00  kz  1  0  1
kzkpz_ww43  log  factor   7.6567289E-02  1.00e-10  1.00e+00  kz  1  0  1
kzkpz_ww44  log  factor   7.0887193E-02  1.00e-10  1.00e+00  kz  1  0  1
kzkpz_ww45  log  factor   8.0246850E-02  1.00e-10  1.00e+00  kz  1  0  1
kzkpz_ww46  log  factor   9.6644425E-02  1.00e-10  1.00e+00  kz  1  0  1
kzkpz_ww47  log  factor   7.9172482E-02  1.00e-10  1.00e+00  kz  1  0  1
kzkpz_ww48  log  factor   7.0597078E-02  1.00e-10  1.00e+00  kz  1  0  1
kzkpz_ww49  log  factor   0.1572452      1.00e-10  1.00e+00  kz  1  0  1
kzkpz_ww50  log  factor   0.1065815      1.00e-10  1.00e+00  kz  1  0  1
kzkpz_ww51  log  factor   2.0184032E-02  1.00e-10  1.00e+00  kz  1  0  1
kzkpz_ww52  log  factor   8.7537193E-02  1.00e-10  1.00e+00  kz  1  0  1
kzkpz_ww53  log  factor   5.0951370E-02  1.00e-10  1.00e+00  kz  1  0  1
kzkpz_ww54  log  factor   0.1479649      1.00e-10  1.00e+00  kz  1  0  1
kzkpz_ww55  log  factor   0.1293559      1.00e-10  1.00e+00  kz  1  0  1
kzkpz_ww56  log  factor   0.1553162      1.00e-10  1.00e+00  kz  1  0  1
kzkpz_ww57  log  factor   7.3023450E-02  1.00e-10  1.00e+00  kz  1  0  1
kzkpz_ww58  log  factor   0.1050139      1.00e-10  1.00e+00  kz  1  0  1
kzkpz_ww59  log  factor   0.1002736      1.00e-10  1.00e+00  kz  1  0  1
kzkpz_ww60  log  factor   0.1135669      1.00e-10  1.00e+00  kz  1  0  1
kzkpz_ww61  log  factor   5.9746924E-02  1.00e-10  1.00e+00  kz  1  0  1