pcf
* control data
restart estimation
    2626     717       8       0      17
43  8  single  point  1  0  0
20.000       -3.0000      0.3  0.03  -12     999  lamforgive 
5.000000e+000  5.000000e+000  1.000000e-003
1.000000e-001 1 noaui
-1  1.000000e-002  3  3  1.000000e-002  3
1    1    1   1  nojcosaveitn reisaveitn parsaveitn
* singular value decomposition
1
500  5.0000000E-07
0
* parameter groups
kx           relative   1.000000e-002  0.000000e+000  always_3  2.000000e+000  parabolic
kz           relative   1.000000e-002  0.000000e+000  always_3  2.000000e+000  parabolic
kp           relative   1.000000e-002  0.000000e+000  switch    2.000000e+000  parabolic
kp_tguess    relative   1.000000e-002  0.000000e+000  switch    2.000000e+000  parabolic
rch_mult     relative   1.000000e-002  0.000000e+000  always_3  2.000000e+000  parabolic
lkbed_mult   relative   1.000000e-002  0.000000e+000  always_3  2.000000e+000  parabolic
streambed_kv relative   1.000000e-002  0.000000e+000  always_3  2.000000e+000  parabolic
aniso        relative   1.000000e-002  0.050000e+000  switch    2.000000e+000  parabolic
* parameter data
rch_unglaci    log     factor   0.8100000      2.50e-01    3.00e+00        rch_mult           1       0       1
rch_glacial    log     factor   0.8100000      2.50e-01    3.00e+00        rch_mult           1       0       1
gl_kv          log     factor    15.00000      2.50e-01    1.50e+01        streambed_kv       1       0       1
ungl_kv        log     factor    1.172685      2.50e-01    5.00e+01        streambed_kv       1       0       1
sprg_kv        fixed   factor    40.00000      2.50e-01    7.00e+01        streambed_kv       1       0       1
lkmendot       log     factor    1.095014      1.00e-03    1.00e+02        lkbed_mult         1       0       1
lkmonona       log     factor    1.051165      1.00e-03    1.00e+02        lkbed_mult         1       0       1
lkwingra       log     factor   0.9500070      1.00e-03    1.00e+02        lkbed_mult         1       0       1
lkwaubes       log     factor    1.008367      1.00e-03    1.00e+02        lkbed_mult         1       0       1
lkkegons       log     factor   0.9764225      1.00e-03    1.00e+02        lkbed_mult         1       0       1
fishlake       fixed   factor    1.000000      1.00e-03    1.20e+00        lkbed_mult         1       0       1
crystllk       fixed   factor    1.000000      1.00e-03    1.20e+00        lkbed_mult         1       0       1
kppdc_stp      log     factor    4.215448      1          20        kp                 1       0       1
kzpdc_stp      log     factor   0.4770516      1.00e-01    2.00e+01        kz                 1       0       1
kpjordan       log     factor    1.123970      0.3          30        kp                 1       0       1
kzjordan       log     factor   1.0000000E-02  1.00e-02    1.00e+01        kz                 1       0       1
kpstlaw        log     factor    60.00000      1          60        kp                 1       0       1
kzstlaw        log     factor   1.0000000E-02  1.00e-02    1.00e+01        kz                 1       0       1
kpuptc         fixed   factor    1.000000      1          10        kp                 1       0       1
kzuptc         fixed   factor   0.5000000      1.00e-02    1.00e+01        kz                 1       0       1
kzhitc         log     factor    10.57339      1.00e-02    1.50e+02        kz                 1       0       1
kztc_lay7w     log     factor   0.5220055      1.00e-03    1.00e+02        kz                 1       0       1
kplowtc        log     factor    1.559810      1           5        kp                 1       0       1
tckhkvratio    log     factor    4.624615      2       10000        aniso              1       0       1
kzwon          fixed   factor    1.000000      1.00e-02    1.00e+01        kz                 1       0       1
kzhiwon        log     factor    9.371491      1.00e-02    1.00e+02        kz                 1       0       1
kzwon_lay10w   log     factor   9.3946234E-02  1.00e-03    1.00e+02        kz                 1       0       1
kpec           log     factor   9.5818047E-03  1.00e-04    1.00e+01        kp                 1       0       1
kx2            fixed   factor    10.00000      1.00e+00    1.00e+02        kx                 1       0       1
kz2            fixed   factor    1.000000      1.00e-03    1.00e+01        kz                 1       0       1
kx10           log     factor    20.00000      2.00e+01    3.00e+02        kx                 1       0       1
kx10ani        log     factor    2.509088      1.00e+00    1.00e+02        aniso              1       0       1
kx11           log     factor    5.000000      1.00e-02    5.00e+00        kx                 1       0       1
kx11ani        log     factor    1.499229      1.00e+00    1.00e+02        aniso              1       0       1
kx12           log     factor    13.18647      2.00e+00    2.00e+02        kx                 1       0       1
kx12ani        log     factor    3.239037      1.00e+00    1.00e+02        aniso              1       0       1
kx13           log     factor    10.00000      1.00e-01    1.00e+01        kx                 1       0       1
kx13ani        log     factor    8.196007      1.00e+00    1.00e+02        aniso              1       0       1
kx14           log     factor   0.5806598      5.00e-01    5.00e+01        kx                 1       0       1
kx14ani        log     factor    100.0000      1.00e+00    1.00e+02        aniso              1       0       1
kx15           log     factor    2.074406      1.00e-01    1.00e+01        kx                 1       0       1
kx15ani        log     factor    4.269621      1.00e+00    1.00e+02        aniso              1       0       1
kx16           fixed   factor    300.0000      3.00e+00    3.00e+02        kx                 1       0       1
kx16ani        fixed   factor    2.000000      1.00e+00    1.00e+02        aniso              1       0       1
kx17           log     factor    100.2040      7.00e+00    7.00e+02        kx                 1       0       1
kx17ani        log     factor    2.007065      1.00e+00    1.00e+02        aniso              1       0       1
kx18           log     factor    2061.807      2.00e+00    2.00e+04        kx                 1       0       1
kz18           log     factor    2027.925      2.00e+00    2.00e+04        kz                 1       0       1
kx19           log     factor    2000.810      2.00e+00    2.00e+04        kx                 1       0       1
kz19           log     factor    1885.822      2.00e+00    2.00e+04        kz                 1       0       1
kx20           log     factor    2073.308      2.00e+00    2.00e+04        kx                 1       0       1
kz20           log     factor    2020.126      2.00e+00    2.00e+04        kz                 1       0       1
kx21           log     factor    2.000000      2.00e+00    2.00e+03        kx                 1       0       1
kz21           log     factor    2.000000      2.00e+00    2.00e+04        kz                 1       0       1
kx22           log     factor    2337.799      2.00e+00    2.00e+04        kx                 1       0       1
kz22           log     factor    2208.637      2.00e+00    2.00e+04        kz                 1       0       1
kx23           log     factor    1986.859      2.00e+00    2.00e+04        kx                 1       0       1
kz23           log     factor    1991.464      2.00e+00    2.00e+04        kz                 1       0       1
kx24           log     factor    1966.021      2.00e+00    2.00e+04        kx                 1       0       1
kz24           log     factor    1864.865      2.00e+00    2.00e+04        kz                 1       0       1
kx25           log     factor    2004.793      2.00e+00    2.00e+04        kx                 1       0       1
kz25           log     factor    2198.200      2.00e+00    2.00e+04        kz                 1       0       1
kx26           log     factor    98.91368      2.00e+00    2.00e+04        kx                 1       0       1
kz26           log     factor    2.797595      2.00e+00    2.00e+04        kz                 1       0       1
kplay7e_2      log     factor    100.4722      1        1000        kp                 1       0       1
kplay7e_3      log     factor    106.9885      1        1000        kp                 1       0       1
kplay7e_4      log     factor    107.3966      1        1000        kp                 1       0       1
kplay7e_5      log     factor    101.5959      1        1000        kp                 1       0       1
kplay7e_6      log     factor    99.93433      1        1000        kp                 1       0       1
kplay7e_7      log     factor    100.4707      1        1000        kp                 1       0       1
kplay7e_8      log     factor    105.4711      1        1000        kp                 1       0       1
kplay7e_9      log     factor    99.82450      1        1000        kp                 1       0       1
kplay7e_10     log     factor    101.8764      1        1000        kp                 1       0       1
kplay7e_11     log     factor    98.89595      1        1000        kp                 1       0       1
kplay7e_12     log     factor    95.97528      1        1000        kp                 1       0       1
kplay7e_13     log     factor    94.15882      1        1000        kp                 1       0       1
kplay7e_14     log     factor    100.3413      1        1000        kp                 1       0       1
kplay7e_15     log     factor    101.7016      1        1000        kp                 1       0       1
kplay7e_16     log     factor    101.3841      1        1000        kp                 1       0       1
kplay7e_17     log     factor    100.1704      1        1000        kp                 1       0       1
kplay7e_18     log     factor    104.4949      1        1000        kp                 1       0       1
kplay7e_19     log     factor    100.1765      1        1000        kp                 1       0       1
kplay7e_20     log     factor    100.3234      1        1000        kp                 1       0       1
kplay7e_21     log     factor    92.63258      1        1000        kp                 1       0       1
kplay7e_22     log     factor    99.66089      1        1000        kp                 1       0       1
kplay7e_24     log     factor    101.3595      1        1000        kp                 1       0       1
kplay7e_25     log     factor    96.83107      1        1000        kp                 1       0       1
kplay7e_26     log     factor    99.60407      1        1000        kp                 1       0       1
kplay7e_27     log     factor    100.3211      1        1000        kp                 1       0       1
kplay7e_28     log     factor    108.7718      1        1000        kp                 1       0       1
kplay7e_29     log     factor    95.11933      1        1000        kp                 1       0       1
kplay7e_30     log     factor    99.39202      1        1000        kp                 1       0       1
kplay7e_31     log     factor    98.02077      1        1000        kp                 1       0       1
kplay7e_32     log     factor    98.98504      1        1000        kp                 1       0       1
kplay7e_33     log     factor    96.99850      1        1000        kp                 1       0       1
kplay7e_35     log     factor    94.23477      1        1000        kp                 1       0       1
kplay7e_36     log     factor    104.6372      1        1000        kp                 1       0       1
kplay7e_37     log     factor    98.12923      1        1000        kp                 1       0       1
kplay7e_38     log     factor    100.6170      1        1000        kp                 1       0       1
kplay7e_39     log     factor    93.87337      1        1000        kp                 1       0       1
kplay7e_40     log     factor    102.7940      1        1000        kp                 1       0       1
kplay7e_41     log     factor    100.3454      1        1000        kp                 1       0       1
kplay7e_42     log     factor    98.77422      1        1000        kp                 1       0       1
kplay7e_43     log     factor    96.08896      1        1000        kp                 1       0       1
kplay7e_44     log     factor    98.87863      1        1000        kp                 1       0       1
kplay7e_34     log     factor    93.60219      1        1000        kp                 1       0       1
kplay7e_50     log     factor    103.9948      1        1000        kp                 1       0       1
kplay7e_51     log     factor    98.10434      1        1000        kp                 1       0       1
kplay7e_52     log     factor    101.9970      1        1000        kp                 1       0       1
kplay7e_53     log     factor    110.6434      1        1000        kp                 1       0       1
kplay7e_54     log     factor    100.4351      1        1000        kp                 1       0       1
kplay7e_55     log     factor    99.50634      1        1000        kp                 1       0       1
kplay7e_56     log     factor    82.41800      1        1000        kp                 1       0       1
kplay7e_57     log     factor    105.8735      1        1000        kp                 1       0       1
kplay7e_58     log     factor    101.4810      1        1000        kp                 1       0       1
kplay7e_59     log     factor    100.8821      1        1000        kp                 1       0       1
kplay7e_60     log     factor    101.1698      1        1000        kp                 1       0       1
kplay7e_61     log     factor    102.3867      1        1000        kp                 1       0       1
kplay7e_62     log     factor    99.05941      1        1000        kp                 1       0       1
kplay7e_63     log     factor    102.3062      1        1000        kp                 1       0       1
kplay7e_64     log     factor    95.76808      1        1000        kp                 1       0       1
kplay7e_65     log     factor    96.88458      1        1000        kp                 1       0       1
kplay7e_66     log     factor    99.17746      1        1000        kp                 1       0       1
kplay7e_67     log     factor    98.16286      1        1000        kp                 1       0       1
kplay7e_68     log     factor    100.5516      1        1000        kp                 1       0       1
kplay7e_69     log     factor    96.22735      1        1000        kp                 1       0       1
kplay7e_49     log     factor    97.91979      1        1000        kp                 1       0       1
kplay7e_80     log     factor    98.76267      1        1000        kp                 1       0       1
kplay7e_84     log     factor    100.5686      1        1000        kp                 1       0       1
kplay7e_75     log     factor    101.4292      1        1000        kp                 1       0       1
kplay7e_76     log     factor    104.3893      1        1000        kp                 1       0       1
kplay7e_77     log     factor    101.9157      1        1000        kp                 1       0       1
kplay7e_78     log     factor    95.52694      1        1000        kp                 1       0       1
kplay7e_79     log     factor    97.58262      1        1000        kp                 1       0       1
kplay7e_81     log     factor    105.4924      1        1000        kp                 1       0       1
kplay7e_82     log     factor    100.5192      1        1000        kp                 1       0       1
kplay7e_83     log     factor    99.89689      1        1000        kp                 1       0       1
kplay7e_85     log     factor    99.62546      1        1000        kp                 1       0       1
kplay7e_86     log     factor    92.36107      1        1000        kp                 1       0       1
kplay7e_87     log     factor    100.1748      1        1000        kp                 1       0       1
kplay7e_88     log     factor    99.40702      1        1000        kp                 1       0       1
kplay7e_89     log     factor    101.1596      1        1000        kp                 1       0       1
kplay7e_90     log     factor    95.37735      1        1000        kp                 1       0       1
kplay7e_91     log     factor    98.94549      1        1000        kp                 1       0       1
kplay7e_92     log     factor    96.29054      1        1000        kp                 1       0       1
kplay7e_93     log     factor    101.4213      1        1000        kp                 1       0       1
kplay7e_94     log     factor    102.4910      1        1000        kp                 1       0       1
kplay7e_99     log     factor    99.33020      1        1000        kp                 1       0       1
kplay7e_100    log     factor    95.83815      1        1000        kp                 1       0       1
kplay7e_101    log     factor    97.46881      1        1000        kp                 1       0       1
kplay7e_102    log     factor    99.83100      1        1000        kp                 1       0       1
kplay7e_103    log     factor    102.1976      1        1000        kp                 1       0       1
kplay7e_104    log     factor    105.0042      1        1000        kp                 1       0       1
kplay7e_105    log     factor    98.00208      1        1000        kp                 1       0       1
kplay7e_106    log     factor    97.75067      1        1000        kp                 1       0       1
kplay7e_107    log     factor    102.4295      1        1000        kp                 1       0       1
kplay7e_108    log     factor    97.80769      1        1000        kp                 1       0       1
kplay7e_109    log     factor    98.65556      1        1000        kp                 1       0       1
kplay7e_110    log     factor    101.6678      1        1000        kp                 1       0       1
kplay7e_111    log     factor    107.9345      1        1000        kp                 1       0       1
kplay7e_112    log     factor    94.99638      1        1000        kp                 1       0       1
kplay7e_113    log     factor    101.3524      1        1000        kp                 1       0       1
kplay7e_114    log     factor    103.6039      1        1000        kp                 1       0       1
kplay7e_115    log     factor    95.05402      1        1000        kp                 1       0       1
kplay7e_116    log     factor    99.33760      1        1000        kp                 1       0       1
kplay7e_117    log     factor    98.29628      1        1000        kp                 1       0       1
kplay7e_118    log     factor    102.4853      1        1000        kp                 1       0       1
kplay7e_119    log     factor    105.6309      1        1000        kp                 1       0       1
kplay7e_124    log     factor    96.76392      1        1000        kp                 1       0       1
kplay7e_125    log     factor    98.59393      1        1000        kp                 1       0       1
kplay7e_126    log     factor    90.63498      1        1000        kp                 1       0       1
kplay7e_127    log     factor    98.36870      1        1000        kp                 1       0       1
kplay7e_128    log     factor    106.7100      1        1000        kp                 1       0       1
kplay7e_129    log     factor    97.26426      1        1000        kp                 1       0       1
kplay7e_130    log     factor    97.09089      1        1000        kp                 1       0       1
kplay7e_133    log     factor    105.1471      1        1000        kp                 1       0       1
kplay7e_135    log     factor    91.23795      1        1000        kp                 1       0       1
kplay7e_136    log     factor    97.08434      1        1000        kp                 1       0       1
kplay7e_137    log     factor    98.04731      1        1000        kp                 1       0       1
kplay7e_138    log     factor    95.17692      1        1000        kp                 1       0       1
kplay7e_139    log     factor    98.64337      1        1000        kp                 1       0       1
kplay7e_140    log     factor    103.1131      1        1000        kp                 1       0       1
kplay7e_141    log     factor    97.66647      1        1000        kp                 1       0       1
kplay7e_142    log     factor    100.4465      1        1000        kp                 1       0       1
kplay7e_143    log     factor    105.9768      1        1000        kp                 1       0       1
kplay7e_144    log     factor    95.47715      1        1000        kp                 1       0       1
kplay7e_132    log     factor    99.37022      1        1000        kp                 1       0       1
kplay7e_134    log     factor    97.88389      1        1000        kp                 1       0       1
kplay7e_159    log     factor    100.6485      1        1000        kp                 1       0       1
kplay7e_131    log     factor    98.75773      1        1000        kp                 1       0       1
kplay7e_158    log     factor    97.68691      1        1000        kp                 1       0       1
kplay7e_150    log     factor    101.1631      1        1000        kp                 1       0       1
kplay7e_157    log     factor    97.17551      1        1000        kp                 1       0       1
kplay7e_151    log     factor    103.1188      1        1000        kp                 1       0       1
kplay7e_152    log     factor    98.38094      1        1000        kp                 1       0       1
kplay7e_153    log     factor    104.0708      1        1000        kp                 1       0       1
kplay7e_154    log     factor    100.7395      1        1000        kp                 1       0       1
kplay7e_160    log     factor    105.3521      1        1000        kp                 1       0       1
kplay7e_161    log     factor    103.2440      1        1000        kp                 1       0       1
kplay7e_162    log     factor    97.53901      1        1000        kp                 1       0       1
kplay7e_163    log     factor    88.51160      1        1000        kp                 1       0       1
kplay7e_164    log     factor    100.4330      1        1000        kp                 1       0       1
kplay7e_165    log     factor    100.7612      1        1000        kp                 1       0       1
kplay7e_166    log     factor    95.01977      1        1000        kp                 1       0       1
kplay7e_167    log     factor    98.50321      1        1000        kp                 1       0       1
kplay7e_168    log     factor    100.5439      1        1000        kp                 1       0       1
kplay7e_169    log     factor    96.06118      1        1000        kp                 1       0       1
kplay7e_156    log     factor    96.36000      1        1000        kp                 1       0       1
kplay7e_155    log     factor    108.9185      1        1000        kp                 1       0       1
kplay7e_183    log     factor    102.3132      1        1000        kp                 1       0       1
kplay7e_179    log     factor    100.0472      1        1000        kp                 1       0       1
kplay7e_184    log     factor    97.21062      1        1000        kp                 1       0       1
kplay7e_181    log     factor    97.22492      1        1000        kp                 1       0       1
kplay7e_176    log     factor    102.3032      1        1000        kp                 1       0       1
kplay7e_177    log     factor    89.01073      1        1000        kp                 1       0       1
kplay7e_178    log     factor    98.60430      1        1000        kp                 1       0       1
kplay7e_180    log     factor    106.0002      1        1000        kp                 1       0       1
kplay7e_185    log     factor    103.7207      1        1000        kp                 1       0       1
kplay7e_186    log     factor    100.0037      1        1000        kp                 1       0       1
kplay7e_187    log     factor    101.1929      1        1000        kp                 1       0       1
kplay7e_188    log     factor    101.6589      1        1000        kp                 1       0       1
kplay7e_189    log     factor    101.4172      1        1000        kp                 1       0       1
kplay7e_190    log     factor    101.5926      1        1000        kp                 1       0       1
kplay7e_191    log     factor    105.8334      1        1000        kp                 1       0       1
kplay7e_192    log     factor    100.1503      1        1000        kp                 1       0       1
kplay7e_193    log     factor    101.0903      1        1000        kp                 1       0       1
kplay7e_194    log     factor    99.73369      1        1000        kp                 1       0       1
kplay7e_209    log     factor    105.5093      1        1000        kp                 1       0       1
kplay7e_202    log     factor    99.32325      1        1000        kp                 1       0       1
kplay7e_203    log     factor    96.99139      1        1000        kp                 1       0       1
kplay7e_205    log     factor    101.7919      1        1000        kp                 1       0       1
kplay7e_206    log     factor    94.92583      1        1000        kp                 1       0       1
kplay7e_210    log     factor    95.76434      1        1000        kp                 1       0       1
kplay7e_211    log     factor    101.4592      1        1000        kp                 1       0       1
kplay7e_212    log     factor    101.5989      1        1000        kp                 1       0       1
kplay7e_213    log     factor    99.08140      1        1000        kp                 1       0       1
kplay7e_214    log     factor    102.1473      1        1000        kp                 1       0       1
kplay7e_215    log     factor    100.6556      1        1000        kp                 1       0       1
kplay7e_216    log     factor    92.85631      1        1000        kp                 1       0       1
kplay7e_217    log     factor    101.1148      1        1000        kp                 1       0       1
kplay7e_218    log     factor    101.0725      1        1000        kp                 1       0       1
kplay7e_219    log     factor    94.12307      1        1000        kp                 1       0       1
kplay7e_204    log     factor    99.97798      1        1000        kp                 1       0       1
kplay7e_208    log     factor    93.03186      1        1000        kp                 1       0       1
kplay7e_207    log     factor    98.01136      1        1000        kp                 1       0       1
kplay7e_182    log     factor    99.06048      1        1000        kp                 1       0       1
kplay7e_232    log     factor    100.5525      1        1000        kp                 1       0       1
kplay7e_234    log     factor    95.11082      1        1000        kp                 1       0       1
kplay7e_227    log     factor    95.46354      1        1000        kp                 1       0       1
kplay7e_228    log     factor    98.70620      1        1000        kp                 1       0       1
kplay7e_229    log     factor    101.2136      1        1000        kp                 1       0       1
kplay7e_230    log     factor    102.1449      1        1000        kp                 1       0       1
kplay7e_231    log     factor    99.37218      1        1000        kp                 1       0       1
kplay7e_235    log     factor    98.00915      1        1000        kp                 1       0       1
kplay7e_236    log     factor    100.6379      1        1000        kp                 1       0       1
kplay7e_237    log     factor    99.25615      1        1000        kp                 1       0       1
kplay7e_238    log     factor    98.13334      1        1000        kp                 1       0       1
kplay7e_239    log     factor    97.91457      1        1000        kp                 1       0       1
kplay7e_240    log     factor    91.48184      1        1000        kp                 1       0       1
kplay7e_241    log     factor    98.74201      1        1000        kp                 1       0       1
kplay7e_242    log     factor    97.29982      1        1000        kp                 1       0       1
kplay7e_243    log     factor    99.38623      1        1000        kp                 1       0       1
kplay7e_244    log     factor    99.57430      1        1000        kp                 1       0       1
kplay7e_233    log     factor    93.98538      1        1000        kp                 1       0       1
kplay7e_252    log     factor    96.51900      1        1000        kp                 1       0       1
kplay7e_253    log     factor    105.3756      1        1000        kp                 1       0       1
kplay7e_254    log     factor    105.0114      1        1000        kp                 1       0       1
kplay7e_255    log     factor    101.9577      1        1000        kp                 1       0       1