pcf
* control data
restart estimation
     29   3591      1      0    150
     1     1   single   point   1   0   0  
20.000       -3.0000      0.3  0.03  -12     999  lamforgive
5.0   5.0   1.0e-3
0.1  noaui
30   .005  4   4  .005   4
1    1    1
* singular value decomposition
1
29  5.0000000E-07
0
* parameter groups
stor         relative     1.0000E-02   0.000      switch      2.000      parabolic
* parameter data
ss3          log    factor       1.00000E-04   5.00000E-05   5.00000E-03  stor           1.000       0.000        1
ss1          log    factor       1.00000E-03   5.00000E-05   5.00000E-03  stor           1.000       0.000        1
ss102        log    factor       5.00000E-03   5.00000E-05   5.00000E-03  stor           1.000       0.000        1
ss106        log    factor       1.00000E-04   5.00000E-05   5.00000E-03  stor           1.000       0.000        1
ss104        log    factor       1.00000E-04   5.00000E-05   5.00000E-03  stor           1.000       0.000        1
ss101        log    factor       1.00000E-03   5.00000E-05   5.00000E-03  stor           1.000       0.000        1
ss103        log    factor       1.00000E-04   5.00000E-05   5.00000E-03  stor           1.000       0.000        1
ss105        log    factor       1.00000E-04   5.00000E-05   5.00000E-03  stor           1.000       0.000        1
ss107        log    factor       1.00000E-04   5.00000E-05   5.00000E-03  stor           1.000       0.000        1
sy3          log    factor       4.00000E-02   1.00000E-02   0.30000      stor           1.000       0.000        1
sy1          log    factor       1.00000E-02   1.00000E-02   0.30000      stor           1.000       0.000        1
sy102        log    factor       5.00000E-02   1.00000E-02   0.30000      stor           1.000       0.000        1
sy106        log    factor       0.10000       1.00000E-02   0.30000      stor           1.000       0.000        1
sy104        log    factor       0.10000       1.00000E-02   0.30000      stor           1.000       0.000        1
sy101        log    factor       0.10000       1.00000E-02   0.30000      stor           1.000       0.000        1
sy103        log    factor       0.20000       1.00000E-02   0.30000      stor           1.000       0.000        1
sy105        log    factor       0.10000       1.00000E-02   0.30000      stor           1.000       0.000        1
sy107        log    factor       0.20000       1.00000E-02   0.30000      stor           1.000       0.000        1
ss4          log    factor       1.00000E-04   5.00000E-05   5.00000E-03  stor           1.000       0.000        1
sy4          log    factor       0.15000       1.00000E-02   0.30000      stor           1.000       0.000        1
ss5          log    factor       1.00000E-04   5.00000E-05   5.00000E-03  stor           1.000       0.000        1
sy5          log    factor       1.00000E-02   1.00000E-02   0.30000      stor           1.000       0.000        1
ss6          log    factor       1.00000E-04   5.00000E-05   5.00000E-03  stor           1.000       0.000        1
ss11         log    factor       1.00000E-04   5.00000E-05   5.00000E-03  stor           1.000       0.000        1
ss7          log    factor       1.00000E-04   5.00000E-05   5.00000E-03  stor           1.000       0.000        1
ss8          log    factor       1.00000E-04   5.00000E-05   5.00000E-03  stor           1.000       0.000        1
ss12         log    factor       1.00000E-04   5.00000E-05   5.00000E-03  stor           1.000       0.000        1
ss9          log    factor       1.00000E-04   5.00000E-05   5.00000E-03  stor           1.000       0.000        1
ss10         log    factor       1.00000E-04   5.00000E-05   5.00000E-03  stor           1.000       0.000        1
* observation groups
13006101_s
13006104_s
13006109_s
130060081_s
130060082_s
130060083_s
130060084_s
25000512_s
13001481_s
13001482_s
13006018_s
13006017_s
13006039_s
13000005_s
13000064_s
13000083_s
13000927_s
13001136_s
13001289_s
13001297_s
13001355_s
13001440_s
13006021_s
13006023_s
13006024_s
13006101_sm
13006104_sm
13006109_sm
130060081_sm
130060082_sm
130060083_sm
130060084_sm
25000512_sm
13001481_sm
13001482_sm
13006018_sm
13006017_sm
13006039_sm
13000005_sm
13000064_sm
13000083_sm
13000927_sm
13001136_sm
13001289_sm
13001297_sm
13001355_sm
13001440_sm
13006021_sm
13006023_sm
13006024_sm
13006101_sr
13006104_sr
13006109_sr
130060081_sr
130060082_sr
130060083_sr
130060084_sr
25000512_sr
13001481_sr
13001482_sr
13006018_sr
13006017_sr
13006039_sr
13000005_sr
13000064_sr
13000083_sr
13000927_sr
13001136_sr
13001289_sr
13001297_sr
13001355_sr
13001440_sr
13006021_sr
13006023_sr
13006024_sr
13006101_sd
13006104_sd
13006109_sd
130060081_sd
130060082_sd
130060083_sd
130060084_sd
25000512_sd
13006018_sd
13006017_sd
13006039_sd
13000064_sd
13000083_sd
13001297_sd
13001355_sd
13001440_sd
13006021_sd
13006023_sd
13006024_sd
mendota_s
monona_s
waubesa_s
kegonsa_s
mendota_sd
monona_sd
waubesa_sd
kegonsa_sd
bec_us_cp_s
bec@be_s
pb@airpt_s
pb@12_s
yah@wau_s
ya_ds_wau_s
ya_ds_keg_s
pleasva_s
badgrmil_s
sugariv_s
bec_us_cp_sl
bec@be_sl
pb@airpt_sl
pb@12_sl
yah@wau_sl
ya_ds_wau_sl
ya_ds_keg_sl
pleasva_sl
badgrmil_sl
sugariv_sl
bec_us_cp_sd
bec@be_sd
pb@airpt_sd
pb@12_sd
yah@wau_sd
ya_ds_wau_sd
ya_ds_keg_sd
pleasva_sd
badgrmil_sd
sugariv_sd
bec_us_cp_sm
bec@be_sm
pb@airpt_sm
pb@12_sm
yah@wau_sm
ya_ds_wau_sm
ya_ds_keg_sm
pleasva_sm
badgrmil_sm
sugariv_sm
ms_mendota
ms_monona
ms_waubesa
ms_kegonsa
rs_mendota
rs_monona
rs_waubesa
rs_kegonsa
* observation data
13006101_s_1           895.3400         0.00000      13006101_s
13006101_s_2           895.2800         0.00000      13006101_s
13006101_s_3           895.3800         0.00000      13006101_s
13006101_s_4           895.3600         0.00000      13006101_s
13006101_s_5           895.3800         0.00000      13006101_s
13006101_s_6           895.3700         0.00000      13006101_s
13006101_s_7           895.3800         0.00000      13006101_s
13006101_s_8           895.2300         0.00000      13006101_s
13006101_s_9           895.2800         0.00000      13006101_s
13006101_s_10          895.1300         0.00000      13006101_s
13006101_s_11          895.2500         0.00000      13006101_s
13006101_s_12          895.2600         0.00000      13006101_s
13006101_s_13          895.2300         0.00000      13006101_s
13006101_s_14          895.1900         0.00000      13006101_s
13006101_s_15          895.2100         0.00000      13006101_s
13006101_s_16          895.2000         0.00000      13006101_s
13006101_s_17          895.1000         0.00000      13006101_s
13006101_s_18          895.0600         0.00000      13006101_s
13006101_s_19          895.0500         0.00000      13006101_s
13006101_s_20          895.1700         0.00000      13006101_s
13006101_s_21          895.0200         0.00000      13006101_s
13006101_s_22          895.0800         0.00000      13006101_s
13006101_s_23          895.1300         0.00000      13006101_s
13006101_s_24          895.0200         0.00000      13006101_s
13006101_s_25          895.0200         0.00000      13006101_s
13006101_s_26          894.9900         0.00000      13006101_s
13006101_s_27          895.0300         0.00000      13006101_s
13006101_s_28          895.0000         0.00000      13006101_s
13006101_s_29          894.9400         0.00000      13006101_s
13006101_s_30          894.9300         0.00000      13006101_s
13006101_s_31          895.0000         0.00000      13006101_s
13006101_s_32          894.9400         0.00000      13006101_s
13006101_s_33          894.8800         0.00000      13006101_s
13006101_s_34          894.9100         0.00000      13006101_s
13006101_s_35          894.8000         0.00000      13006101_s
13006101_s_36          894.8100         0.00000      13006101_s
13006101_s_37          894.7700         0.00000      13006101_s
13006101_s_38          894.7800         0.00000      13006101_s
13006101_s_39          894.8500         0.00000      13006101_s
13006101_s_40          894.7700         0.00000      13006101_s
13006101_s_41          894.7400         0.00000      13006101_s
13006101_s_42          894.7800         0.00000      13006101_s
13006101_s_43          894.7300         0.00000      13006101_s
13006101_s_44          894.7800         0.00000      13006101_s
13006101_s_45          894.6900         0.00000      13006101_s
13006101_s_46          894.7200         0.00000      13006101_s
13006104_s_1           895.8000         0.00000      13006104_s
13006104_s_2           895.7900         0.00000      13006104_s
13006104_s_3           895.7800         0.00000      13006104_s
13006104_s_4           895.7500         0.00000      13006104_s
13006104_s_5           895.7300         0.00000      13006104_s
13006104_s_6           895.7200         0.00000      13006104_s
13006104_s_7           895.6900         0.00000      13006104_s
13006104_s_8           895.6600         0.00000      13006104_s
13006104_s_9           895.6600         0.00000      13006104_s
13006104_s_10          895.6100         0.00000      13006104_s
13006104_s_11          895.5800         0.00000      13006104_s
13006104_s_12          895.5700         0.00000      13006104_s
13006104_s_13          895.5700         0.00000      13006104_s
13006104_s_14          895.5700         0.00000      13006104_s
13006104_s_15          895.5600         0.00000      13006104_s
13006104_s_16          895.5400         0.00000      13006104_s
13006104_s_17          895.4900         0.00000      13006104_s
13006104_s_18          895.5000         0.00000      13006104_s
13006104_s_19          895.4600         0.00000      13006104_s
13006104_s_20          895.4300         0.00000      13006104_s
13006104_s_21          895.4100         0.00000      13006104_s
13006104_s_22          895.4100         0.00000      13006104_s
13006104_s_23          895.4200         0.00000      13006104_s
13006104_s_24          895.4200         0.00000      13006104_s
13006104_s_25          895.3800         0.00000      13006104_s
13006104_s_26          895.3600         0.00000      13006104_s
13006104_s_27          895.3500         0.00000      13006104_s
13006104_s_28          895.2800         0.00000      13006104_s
13006104_s_29          895.2500         0.00000      13006104_s
13006104_s_30          895.2700         0.00000      13006104_s
13006104_s_31          895.2100         0.00000      13006104_s
13006104_s_32          895.2100         0.00000      13006104_s
13006104_s_33          895.1900         0.00000      13006104_s
13006104_s_34          895.1800         0.00000      13006104_s
13006104_s_35          895.1300         0.00000      13006104_s
13006104_s_36          895.1300         0.00000      13006104_s
13006104_s_37          895.0800         0.00000      13006104_s
13006104_s_38          895.0600         0.00000      13006104_s
13006104_s_39          895.0700         0.00000      13006104_s
13006104_s_40          895.0200         0.00000      13006104_s
13006104_s_41          895.0300         0.00000      13006104_s
13006104_s_42          895.0200         0.00000      13006104_s
13006104_s_43          894.9900         0.00000      13006104_s
13006104_s_44          894.9600         0.00000      13006104_s
13006104_s_45          894.9600         0.00000      13006104_s
13006104_s_46          894.9300         0.00000      13006104_s
13006109_s_1           887.0700         0.00000      13006109_s
13006109_s_2           887.0200         0.00000      13006109_s
13006109_s_3           886.9700         0.00000      13006109_s
13006109_s_4           886.9600         0.00000      13006109_s
13006109_s_5           886.9400         0.00000      13006109_s
13006109_s_6           886.9400         0.00000      13006109_s
13006109_s_7           886.9200         0.00000      13006109_s
13006109_s_8           886.9000         0.00000      13006109_s
13006109_s_9           886.8500         0.00000      13006109_s
13006109_s_10          886.7900         0.00000      13006109_s
13006109_s_11          886.7700         0.00000      13006109_s
13006109_s_12          886.7300         0.00000      13006109_s
13006109_s_13          886.7600         0.00000      13006109_s
13006109_s_14          886.7600         0.00000      13006109_s
13006109_s_15          886.7100         0.00000      13006109_s
13006109_s_16          886.6800         0.00000      13006109_s
13006109_s_17          886.6300         0.00000      13006109_s
13006109_s_18          886.5900         0.00000      13006109_s
13006109_s_19          886.5100         0.00000      13006109_s
13006109_s_20          886.5300         0.00000      13006109_s
13006109_s_21          886.5000         0.00000      13006109_s
13006109_s_22          886.4600         0.00000      13006109_s
13006109_s_23          886.4600         0.00000      13006109_s
13006109_s_24          886.4400         0.00000      13006109_s
13006109_s_25          886.3900         0.00000      13006109_s
13006109_s_26          886.3800         0.00000      13006109_s
13006109_s_27          886.3500         0.00000      13006109_s
13006109_s_28          886.2600         0.00000      13006109_s
13006109_s_29          886.1900         0.00000      13006109_s
13006109_s_30          886.2200         0.00000      13006109_s
13006109_s_31          886.1300         0.00000      13006109_s
13006109_s_32          886.1400         0.00000      13006109_s
13006109_s_33          886.0900         0.00000      13006109_s
13006109_s_34          886.0400         0.00000      13006109_s
13006109_s_35          885.9600         0.00000      13006109_s
13006109_s_36          885.9300         0.00000      13006109_s
13006109_s_37          885.8900         0.00000      13006109_s
13006109_s_38          885.8500         0.00000      13006109_s
13006109_s_39          885.8500         0.00000      13006109_s
13006109_s_40          885.8000         0.00000      13006109_s
13006109_s_41          885.7900         0.00000      13006109_s
13006109_s_42          885.7600         0.00000      13006109_s
13006109_s_43          885.7100         0.00000      13006109_s
13006109_s_44          885.6600         0.00000      13006109_s
13006109_s_45          885.6300         0.00000      13006109_s
13006109_s_46          885.5800         0.00000      13006109_s
130060081_s_1          862.2600         0.00000      130060081_s
130060081_s_2          862.2300         0.00000      130060081_s
130060081_s_3          862.0200         0.00000      130060081_s
130060081_s_4          862.0700         0.00000      130060081_s
130060081_s_5          862.0600         0.00000      130060081_s
130060081_s_6          862.0800         0.00000      130060081_s
130060081_s_7          862.1400         0.00000      130060081_s
130060081_s_8          861.9800         0.00000      130060081_s
130060081_s_9          861.7700         0.00000      130060081_s
130060081_s_10         861.5300         0.00000      130060081_s
130060081_s_11         861.5100         0.00000      130060081_s
130060081_s_12         861.5300         0.00000      130060081_s
130060081_s_13         861.8400         0.00000      130060081_s
130060081_s_14         861.8900         0.00000      130060081_s
130060081_s_15         861.6800         0.00000      130060081_s
130060081_s_16         861.7100         0.00000      130060081_s
130060081_s_17         861.4000         0.00000      130060081_s
130060081_s_18         861.3600         0.00000      130060081_s
130060081_s_19         861.1600         0.00000      130060081_s
130060081_s_20         861.1600         0.00000      130060081_s
130060081_s_21         861.2100         0.00000      130060081_s
130060081_s_22         861.3600         0.00000      130060081_s
130060081_s_23         861.4300         0.00000      130060081_s
130060081_s_24         861.4100         0.00000      130060081_s
130060081_s_25         861.2600         0.00000      130060081_s
130060081_s_26         861.3300         0.00000      130060081_s
130060081_s_27         861.2600         0.00000      130060081_s
130060081_s_28         861.0100         0.00000      130060081_s
130060081_s_29         860.8300         0.00000      130060081_s
130060081_s_30         860.9200         0.00000      130060081_s
130060081_s_31         860.8400         0.00000      130060081_s
130060081_s_32         860.9700         0.00000      130060081_s
130060081_s_33         860.8900         0.00000      130060081_s
130060081_s_34         860.6700         0.00000      130060081_s
130060081_s_35         860.6300         0.00000      130060081_s
130060081_s_36         860.6600         0.00000      130060081_s
130060081_s_37         860.6400         0.00000      130060081_s
130060081_s_38         860.6800         0.00000      130060081_s
130060081_s_39         860.8200         0.00000      130060081_s
130060081_s_40         860.8000         0.00000      130060081_s
130060081_s_41         860.7200         0.00000      130060081_s
130060081_s_42         860.7300         0.00000      130060081_s
130060081_s_43         860.5900         0.00000      130060081_s
130060081_s_44         860.4500         0.00000      130060081_s
130060081_s_45         860.3300         0.00000      130060081_s
130060081_s_46         860.3000         0.00000      130060081_s
130060082_s_1          853.7500         0.00000      130060082_s
130060082_s_2          853.7700         0.00000      130060082_s
130060082_s_3          853.6200         0.00000      130060082_s
130060082_s_4          853.8000         0.00000      130060082_s
130060082_s_5          853.5300         0.00000      130060082_s
130060082_s_6          852.7200         0.00000      130060082_s
130060082_s_7          852.3900         0.00000      130060082_s
130060082_s_8          852.1000         0.00000      130060082_s
130060082_s_9          851.8200         0.00000      130060082_s
130060082_s_10         852.3900         0.00000      130060082_s
130060082_s_11         852.1900         0.00000      130060082_s
130060082_s_12         851.9500         0.00000      130060082_s
130060082_s_13         852.4800         0.00000      130060082_s
130060082_s_14         852.0000         0.00000      130060082_s
130060082_s_15         852.5900         0.00000      130060082_s
130060082_s_16         852.5500         0.00000      130060082_s
130060082_s_17         851.6400         0.00000      130060082_s
130060082_s_18         851.8300         0.00000      130060082_s
130060082_s_19         851.9100         0.00000      130060082_s
130060082_s_20         851.8400         0.00000      130060082_s
130060082_s_21         851.1700         0.00000      130060082_s
130060082_s_22         851.6000         0.00000      130060082_s
130060082_s_23         851.5000         0.00000      130060082_s
130060082_s_24         851.1300         0.00000      130060082_s
130060082_s_25         851.3400         0.00000      130060082_s
130060082_s_26         850.9900         0.00000      130060082_s
130060082_s_27         850.7500         0.00000      130060082_s
130060082_s_28         851.0400         0.00000      130060082_s
130060082_s_29         850.6800         0.00000      130060082_s
130060082_s_30         850.4200         0.00000      130060082_s
130060082_s_31         851.3500         0.00000      130060082_s
130060082_s_32         851.5000         0.00000      130060082_s
130060082_s_33         850.7600         0.00000      130060082_s
130060082_s_34         850.4200         0.00000      130060082_s
130060082_s_35         850.5700         0.00000      130060082_s
130060082_s_36         850.2200         0.00000      130060082_s
130060082_s_37         850.2300         0.00000      130060082_s
130060082_s_38         850.1900         0.00000      130060082_s
130060082_s_39         850.9100         0.00000      130060082_s
130060082_s_40         850.5700         0.00000      130060082_s
130060082_s_41         850.0000         0.00000      130060082_s
130060082_s_42         850.3400         0.00000      130060082_s
130060082_s_43         849.7600         0.00000      130060082_s
130060082_s_44         849.5100         0.00000      130060082_s
130060082_s_45         850.0500         0.00000      130060082_s
130060082_s_46         850.1600         0.00000      130060082_s
130060083_s_1          854.1300         0.00000      130060083_s
130060083_s_2          854.1600         0.00000      130060083_s
130060083_s_3          853.9900         0.00000      130060083_s
130060083_s_4          854.1700         0.00000      130060083_s
130060083_s_5          853.9100         0.00000      130060083_s
130060083_s_6          853.1100         0.00000      130060083_s
130060083_s_7          852.7500         0.00000      130060083_s
130060083_s_8          852.4500         0.00000      130060083_s
130060083_s_9          852.1700         0.00000      130060083_s
130060083_s_10         852.7700         0.00000      130060083_s
130060083_s_11         852.5600         0.00000      130060083_s
130060083_s_12         852.3200         0.00000      130060083_s
130060083_s_13         852.8600         0.00000      130060083_s
130060083_s_14         852.3600         0.00000      130060083_s
130060083_s_15         852.9500         0.00000      130060083_s
130060083_s_16         852.9300         0.00000      130060083_s
130060083_s_17         852.0300         0.00000      130060083_s
130060083_s_18         852.1700         0.00000      130060083_s
130060083_s_19         852.2600         0.00000      130060083_s
130060083_s_20         852.2100         0.00000      130060083_s
130060083_s_21         851.5300         0.00000      130060083_s
130060083_s_22         851.9700         0.00000      130060083_s
130060083_s_23         851.8700         0.00000      130060083_s
130060083_s_24         851.5000         0.00000      130060083_s
130060083_s_25         851.7000         0.00000      130060083_s
130060083_s_26         851.3400         0.00000      130060083_s
130060083_s_27         851.1000         0.00000      130060083_s
130060083_s_28         851.4200         0.00000      130060083_s
130060083_s_29         851.0400         0.00000      130060083_s
130060083_s_30         850.7800         0.00000      130060083_s
130060083_s_31         851.7100         0.00000      130060083_s
130060083_s_32         851.8900         0.00000      130060083_s
130060083_s_33         851.1100         0.00000      130060083_s
130060083_s_34         850.7900         0.00000      130060083_s
130060083_s_35         850.9500         0.00000      130060083_s
130060083_s_36         850.5800         0.00000      130060083_s
130060083_s_37         850.6100         0.00000      130060083_s
130060083_s_38         850.5500         0.00000      130060083_s
130060083_s_39         851.2800         0.00000      130060083_s
130060083_s_40         850.9400         0.00000      130060083_s
130060083_s_41         850.3700         0.00000      130060083_s
130060083_s_42         850.7000         0.00000      130060083_s
130060083_s_43         850.1200         0.00000      130060083_s
130060083_s_44         849.8700         0.00000      130060083_s
130060083_s_45         850.4300         0.00000      130060083_s
130060083_s_46         850.5300         0.00000      130060083_s
130060084_s_1          825.3400         0.00000      130060084_s
130060084_s_2          817.1900         0.00000      130060084_s
130060084_s_3          812.5800         0.00000      130060084_s
130060084_s_4          813.8200         0.00000      130060084_s
130060084_s_5          813.5100         0.00000      130060084_s
130060084_s_6          811.8300         0.00000      130060084_s
130060084_s_7          811.1400         0.00000      130060084_s
130060084_s_8          810.2800         0.00000      130060084_s
130060084_s_9          809.1000         0.00000      130060084_s
130060084_s_10         808.1300         0.00000      130060084_s
130060084_s_11         808.1100         0.00000      130060084_s
130060084_s_12         808.6300         0.00000      130060084_s
130060084_s_13         808.8200         0.00000      130060084_s
130060084_s_14         809.0600         0.00000      130060084_s
130060084_s_15         810.3200         0.00000      130060084_s
130060084_s_16         811.2900         0.00000      130060084_s
130060084_s_17         810.6600         0.00000      130060084_s
130060084_s_18         809.9200         0.00000      130060084_s
130060084_s_19         811.8100         0.00000      130060084_s
130060084_s_20         811.6100         0.00000      130060084_s
130060084_s_21         816.7000         0.00000      130060084_s
130060084_s_22         808.9300         0.00000      130060084_s
130060084_s_23         806.8300         0.00000      130060084_s
130060084_s_24         807.8400         0.00000      130060084_s
130060084_s_25         808.5500         0.00000      130060084_s
130060084_s_26         806.1400         0.00000      130060084_s
130060084_s_27         806.9800         0.00000      130060084_s
130060084_s_28         806.6400         0.00000      130060084_s
130060084_s_29         805.5900         0.00000      130060084_s
130060084_s_30         805.4800         0.00000      130060084_s
130060084_s_31         807.3700         0.00000      130060084_s
130060084_s_32         806.1600         0.00000      130060084_s
130060084_s_33         805.4700         0.00000      130060084_s
130060084_s_34         805.5300         0.00000      130060084_s
130060084_s_35         805.7800         0.00000      130060084_s
130060084_s_36         806.0700         0.00000      130060084_s
130060084_s_37         808.5900         0.00000      130060084_s
130060084_s_38         805.2300         0.00000      130060084_s
130060084_s_39         805.8000         0.00000      130060084_s
130060084_s_40         805.0700         0.00000      130060084_s
130060084_s_41         804.7300         0.00000      130060084_s
130060084_s_42         804.2100         0.00000      130060084_s
130060084_s_43         803.1500         0.00000      130060084_s
130060084_s_44         803.8600         0.00000      130060084_s
130060084_s_45         803.0100         0.00000      130060084_s
130060084_s_46         803.1800         0.00000      130060084_s
25000512_s_1           852.5200         0.00000      25000512_s
25000512_s_2           852.4800         0.00000      25000512_s
25000512_s_3           852.4000         0.00000      25000512_s
25000512_s_4           852.4200         0.00000      25000512_s
25000512_s_5           852.4500         0.00000      25000512_s
25000512_s_6           852.5000         0.00000      25000512_s
25000512_s_7           852.5200         0.00000      25000512_s
25000512_s_8           852.5400         0.00000      25000512_s
25000512_s_9           852.4700         0.00000      25000512_s
25000512_s_10          852.4000         0.00000      25000512_s
25000512_s_11          852.3700         0.00000      25000512_s
25000512_s_12          852.3400         0.00000      25000512_s
25000512_s_13          852.4500         0.00000      25000512_s
25000512_s_14          852.4600         0.00000      25000512_s
25000512_s_15          852.4200         0.00000      25000512_s
25000512_s_16          852.4100         0.00000      25000512_s
25000512_s_17          852.3800         0.00000      25000512_s
25000512_s_18          852.3200         0.00000      25000512_s
25000512_s_19          852.1900         0.00000      25000512_s
25000512_s_20          852.2400         0.00000      25000512_s
25000512_s_21          852.2600         0.00000      25000512_s
25000512_s_22          852.2700         0.00000      25000512_s
25000512_s_23          852.3000         0.00000      25000512_s
25000512_s_24          852.2800         0.00000      25000512_s
25000512_s_25          852.2600         0.00000      25000512_s
25000512_s_26          852.3000         0.00000      25000512_s
25000512_s_27          852.2600         0.00000      25000512_s
25000512_s_28          852.1800         0.00000      25000512_s
25000512_s_29          852.1500         0.00000      25000512_s
25000512_s_30          852.1500         0.00000      25000512_s
25000512_s_31          852.1000         0.00000      25000512_s
25000512_s_32          852.1300         0.00000      25000512_s
25000512_s_33          852.1200         0.00000      25000512_s
25000512_s_34          852.1100         0.00000      25000512_s
25000512_s_35          852.0600         0.00000      25000512_s
25000512_s_36          852.0500         0.00000      25000512_s
25000512_s_37          852.0600         0.00000      25000512_s
25000512_s_38          852.0700         0.00000      25000512_s
25000512_s_39          852.0700         0.00000      25000512_s
25000512_s_40          852.0400         0.00000      25000512_s
25000512_s_41          852.0500         0.00000      25000512_s
25000512_s_42          852.0500         0.00000      25000512_s
25000512_s_43          852.0400         0.00000      25000512_s
25000512_s_44          852.0200         0.00000      25000512_s
25000512_s_45          851.9900         0.00000      25000512_s
25000512_s_46          851.9700         0.00000      25000512_s
13001481_s_1           834.0300         0.00000      13001481_s
13001482_s_1           808.7300         0.00000      13001482_s