pcf
* control data
 restart estimation
     548   11910       9    0      13
37  9  single  point  1  0  0
5.000000e+001  -2.000000e+000  3.000000e-001  1.000000e-002  7 999
1.000000e-001  2.000000e+000  1.000000e-003
1.000000e-001 noaui
-1  1.000000e-004  3  3  1.000000e-002  3
0  0  0  1 jcosave noverboserec jcosaveitn reisaveitn parsaveitn
* singular value decomposition
  1
  895  5.000000e-007
  1
* parameter groups
Quat_Kx        relative   1.000000e-002  0.000000e+000  switch  2.000000e+000  parabolic
Quat_Kz        relative   1.000000e-002  0.000000e+000  switch  2.000000e+000  parabolic
Kx             relative   1.000000e-002  0.000000e+000  switch  2.000000e+000  parabolic
Vert_Aniso     relative   1.000000e-002  0.000000e+000  switch  2.000000e+000  parabolic
Depth_Lambda   relative   1.000000e-002  0.000000e+000  switch  2.000000e+000  parabolic
Depth_Const    relative   1.000000e-002  0.000000e+000  switch  2.000000e+000  parabolic
Kx_CB          relative   1.000000e-002  0.000000e+000  switch  2.000000e+000  parabolic
Rch_Mult       relative   1.000000e-002  0.000000e+000  switch  2.000000e+000  parabolic
Riv_Kz         relative   1.000000e-002  0.000000e+000  switch  2.000000e+000  parabolic
* parameter data
qhk00               log      factor    1.254698 1.0000e-06     5.0000e+02    quat_kx        1    0    1
qhkfac01            log      factor    0.99      1.0000e-04     1.0000000     quat_kx        1    0    1
qhkfac02            log      factor    0.67      1.0000e-04     1.0000000     quat_kx        1    0    1
qhkfac03            log      factor    0.92      1.0000e-04     1.0000000     quat_kx        1    0    1
qhkfac04            log      factor    0.98      1.0000e-04     1.0000000     quat_kx        1    0    1
qhk05               log      factor    77.24     1.0000e-04     2.0000e+02    quat_kx        1    0    1
qhkfac06            log      factor    0.06      1.0000e-04     1.0000000     quat_kx        1    0    1
qhkfac07            log      factor    0.15      1.0000e-04     1.0000000     quat_kx        1    0    1
qhkfac08            log      factor    0.39      1.0000e-04     1.0000000     quat_kx        1    0    1
qhkfac09            log      factor    0.73      1.0000e-04     1.0000000     quat_kx        1    0    1
qhkfac10            log      factor    0.51      1.0000e-04     1.0000000     quat_kx        1    0    1
qhkfac11            log      factor    0.98      1.0000e-04     1.0000000     quat_kx        1    0    1
qhk12               log      factor    1.254698      1.0000e-03     2.0000e+02     quat_kx        1    0    1
qhk15               log      factor    19.86411      1.0000e-03     1.5000e+03     quat_kx        1    0    1
qhk100              log      factor    1.180390      1.0000e-03     1.0000e+02     quat_kx        1    0    1
qhk101              log      factor    1.352902      1.0000e-03     1.0000e+02     quat_kx        1    0    1
qhk102              log      factor    1.217100      1.0000e-03     1.0000e+02     quat_kx        1    0    1
qhk103              log      factor    3.490094      1.0000e-03     1.0000e+02     quat_kx        1    0    1
qhk104              log      factor   0.2254105      1.0000e-03     1.0000e+02     quat_kx        1    0    1
qhk105              log      factor   0.4647862      1.0000e-03     1.0000e+02     quat_kx        1    0    1
qhk106              log      factor    28.31588      1.0000e-03     1.0000e+02     quat_kx        1    0    1
qhk107              log      factor    1.629044      1.0000e-03     1.0000e+02     quat_kx        1    0    1
qhk108              log      factor    11.01119      1.0000e-03     1.0000e+02     quat_kx        1    0    1
qhk109              log      factor    4.236232      1.0000e-03     1.0000e+02     quat_kx        1    0    1
qhk110              log      factor    1.060527      1.0000e-03     1.0000e+02     quat_kx        1    0    1
qhk111              log      factor    7.555268      1.0000e-03     1.0000e+02     quat_kx        1    0    1
qhk112              log      factor    2.712137      1.0000e-03     1.0000e+02     quat_kx        1    0    1
qhk113              log      factor    3.555915      1.0000e-03     1.0000e+02     quat_kx        1    0    1
qhk114              log      factor    6.011230      1.0000e-03     1.0000e+02     quat_kx        1    0    1
qhk115              log      factor   0.6377211      1.0000e-03     1.0000e+02     quat_kx        1    0    1
qhk116              log      factor    1.350384      1.0000e-03     1.0000e+02     quat_kx        1    0    1
qhk117              log      factor    1.547456      1.0000e-03     1.0000e+02     quat_kx        1    0    1
qhk118              log      factor    6.687993      1.0000e-03     1.0000e+02     quat_kx        1    0    1
qhk119              log      factor   7.0269930E-02  1.0000e-03     1.0000e+02     quat_kx        1    0    1
qhk120              log      factor    12.95339      1.0000e-03     1.0000e+02     quat_kx        1    0    1
qhk121              log      factor    1.372927      1.0000e-03     1.0000e+02     quat_kx        1    0    1
qhk122              log      factor    1.063297      1.0000e-03     1.0000e+02     quat_kx        1    0    1
qhk123              log      factor    1.748420      1.0000e-03     1.0000e+02     quat_kx        1    0    1
qhk124              log      factor    20.00000      1.0000e-03     1.0000e+02     quat_kx        1    0    1
qhk125              log      factor    1.700897      1.0000e-03     1.0000e+02     quat_kx        1    0    1
qhk126              log      factor    20.00000      1.0000e-03     1.0000e+02     quat_kx        1    0    1
qhk127              log      factor    1.307978      1.0000e-03     1.0000e+02     quat_kx        1    0    1
qhk128              log      factor    1.101091      1.0000e-03     1.0000e+02     quat_kx        1    0    1
qhk129              log      factor    1.252122      1.0000e-03     1.0000e+02     quat_kx        1    0    1
qhk130              log      factor    1.263197      1.0000e-03     1.0000e+02     quat_kx        1    0    1
qhk131              log      factor    1.245302      1.0000e-03     1.0000e+02     quat_kx        1    0    1
qhk132              log      factor    2.122493      1.0000e-03     1.0000e+02     quat_kx        1    0    1
qhk133              log      factor    1.413676      1.0000e-03     1.0000e+02     quat_kx        1    0    1
qhk134              log      factor    1.242207      1.0000e-03     1.0000e+02     quat_kx        1    0    1
qhk135              log      factor    1.360533      1.0000e-03     1.0000e+02     quat_kx        1    0    1
qhk136              log      factor    1.258607      1.0000e-03     1.0000e+02     quat_kx        1    0    1
qhk137              log      factor    1.255915      1.0000e-03     1.0000e+02     quat_kx        1    0    1
qhk138              log      factor    1.534912      1.0000e-03     1.0000e+02     quat_kx        1    0    1
qhk139              log      factor    1.257361      1.0000e-03     1.0000e+02     quat_kx        1    0    1
qhk140              log      factor    1.228537      1.0000e-03     1.0000e+02     quat_kx        1    0    1
qhk141              log      factor    1.239513      1.0000e-03     1.0000e+02     quat_kx        1    0    1
qhk142              log      factor    1.275766      1.0000e-03     1.0000e+02     quat_kx        1    0    1
qvk00               log       factor   1.8108512E-02 1.0000e-03    1.0000e+02     quat_kz        1    0    1
qvkfac01               log      factor   0.99  1.0000e-04     1.00000000     quat_kz        1    0    1
qvkfac02               log      factor   0.67  1.0000e-04     1.00000000     quat_kz        1    0    1
qvkfac03               log      factor   0.92  1.0000e-04     1.00000000     quat_kz        1    0    1
qvkfac04               log      factor   0.98  1.0000e-04     1.00000000     quat_kz        1    0    1
qvk05                  log      factor   7.724      1.0000e-03     5.0000e+02     quat_kz        1    0    1
qvkfac06               log      factor   0.06  1.0000e-04     1.00000000     quat_kz        1    0    1
qvkfac07               log      factor   0.15  1.0000e-04     1.00000000     quat_kz        1    0    1
qvkfac08               log      factor   0.39  1.0000e-04     1.00000000     quat_kz        1    0    1
qvkfac09               log      factor   0.73  1.0000e-04     1.00000000     quat_kz        1    0    1
qvkfac10               log      factor   0.51  1.0000e-04     1.00000000     quat_kz        1    0    1
qvkfac11               log      factor   0.98  1.0000e-04     1.00000000     quat_kz        1    0    1
qvk12               log      factor   1.8108512E-02  1.0000e-07     1.0000e+02     quat_kz        1    0    1
qvk15               log      factor   2.6585046E-02  1.0000e-06     2.0000e+02     quat_kz        1    0    1
qvk100              log      factor   1.8057151E-02  1.0000e-07     1.0000e+02     quat_kz        1    0    1
qvk101              log      factor   2.2347635E-02  1.0000e-07     1.0000e+02     quat_kz        1    0    1
qvk102              log      factor   5.3906129E-02  1.0000e-07     1.0000e+02     quat_kz        1    0    1
qvk103              log      factor   2.8317789E-02  1.0000e-07     1.0000e+02     quat_kz        1    0    1
qvk104              log      factor   4.6322908E-03  1.0000e-07     1.0000e+02     quat_kz        1    0    1
qvk105              log      factor   5.0481437E-03  1.0000e-07     1.0000e+02     quat_kz        1    0    1
qvk106              log      factor   0.1545428      1.0000e-07     1.0000e+02     quat_kz        1    0    1
qvk107              log      factor   3.6038353E-02  1.0000e-07     1.0000e+02     quat_kz        1    0    1
qvk108              log      factor   2.4438196E-02  1.0000e-07     1.0000e+02     quat_kz        1    0    1
qvk109              log      factor   2.4452082E-02  1.0000e-07     1.0000e+02     quat_kz        1    0    1
qvk110              log      factor   4.2072931E-03  1.0000e-07     1.0000e+02     quat_kz        1    0    1
qvk111              log      factor   1.6490746E-02  1.0000e-07     1.0000e+02     quat_kz        1    0    1
qvk112              log      factor   7.0312925E-02  1.0000e-07     1.0000e+02     quat_kz        1    0    1
qvk113              log      factor   2.0116437E-02  1.0000e-07     1.0000e+02     quat_kz        1    0    1
qvk114              log      factor   8.9718942E-02  1.0000e-07     1.0000e+02     quat_kz        1    0    1
qvk115              log      factor   1.0359507E-02  1.0000e-07     1.0000e+02     quat_kz        1    0    1
qvk116              log      factor   3.7031489E-02  1.0000e-07     1.0000e+02     quat_kz        1    0    1
qvk117              log      factor   2.3869892E-02  1.0000e-07     1.0000e+02     quat_kz        1    0    1
qvk118              log      factor   2.4141761E-02  1.0000e-07     1.0000e+02     quat_kz        1    0    1
qvk119              log      factor   8.2125305E-03  1.0000e-07     1.0000e+02     quat_kz        1    0    1
qvk120              log      factor   0.1006312      1.0000e-07     1.0000e+02     quat_kz        1    0    1
qvk121              log      factor   1.7980140E-02  1.0000e-07     1.0000e+02     quat_kz        1    0    1
qvk122              log      factor   3.4051761E-03  1.0000e-07     1.0000e+02     quat_kz        1    0    1
qvk123              log      factor   2.2286146E-02  1.0000e-07     1.0000e+02     quat_kz        1    0    1
qvk124              log      factor   1.2152860E-03  1.0000e-07     1.0000e+02     quat_kz        1    0    1
qvk125              log      factor   1.5562128E-02  1.0000e-07     1.0000e+02     quat_kz        1    0    1
qvk126              log      factor   5.1365653E-04  1.0000e-07     1.0000e+02     quat_kz        1    0    1
qvk127              log      factor   1.8785418E-02  1.0000e-07     1.0000e+02     quat_kz        1    0    1
qvk128              log      factor   2.8334890E-02  1.0000e-07     1.0000e+02     quat_kz        1    0    1
qvk129              log      factor   1.8250513E-02  1.0000e-07     1.0000e+02     quat_kz        1    0    1
qvk130              log      factor   1.9687779E-02  1.0000e-07     1.0000e+02     quat_kz        1    0    1
qvk131              log      factor   1.5457960E-02  1.0000e-07     1.0000e+02     quat_kz        1    0    1
qvk132              log      factor   1.8096869E-02  1.0000e-07     1.0000e+02     quat_kz        1    0    1
qvk133              log      factor   1.7713740E-02  1.0000e-07     1.0000e+02     quat_kz        1    0    1
qvk134              log      factor   1.8240405E-02  1.0000e-07     1.0000e+02     quat_kz        1    0    1
qvk135              log      factor   1.5334613E-02  1.0000e-07     1.0000e+02     quat_kz        1    0    1
qvk136              log      factor   1.8727909E-02  1.0000e-07     1.0000e+02     quat_kz        1    0    1
qvk137              log      factor   1.7803462E-02  1.0000e-07     1.0000e+02     quat_kz        1    0    1
qvk138              log      factor   2.6033956E-02  1.0000e-07     1.0000e+02     quat_kz        1    0    1
qvk139              log      factor   1.6191128E-02  1.0000e-07     1.0000e+02     quat_kz        1    0    1
qvk140              log      factor   1.8221643E-02  1.0000e-07     1.0000e+02     quat_kz        1    0    1
qvk141              log      factor   1.5987547E-02  1.0000e-07     1.0000e+02     quat_kz        1    0    1
qvk142              log      factor   1.8135798E-02  1.0000e-07     1.0000e+02     quat_kz        1    0    1
kx_os001            log       factor    13.09556      1.0000e-02     3.0000e+01     kx             1    0    1
kx_os002            log      factor    7.824294      1.0000e-02     3.0000e+01     kx             1    0    1
kx_os003            log      factor    1.148051      1.0000e-02     3.0000e+01     kx             1    0    1
kx_os004            log      factor    14.54790      1.0000e-02     3.0000e+01     kx             1    0    1
kx_os005            log      factor    12.49456      1.0000e-02     3.0000e+01     kx             1    0    1
kx_os006            log      factor    15.84156      1.0000e-02     3.0000e+01     kx             1    0    1
kx_os007            log      factor    12.02790      1.0000e-02     3.0000e+01     kx             1    0    1
kx_os008            log      factor    12.04271      1.0000e-02     3.0000e+01     kx             1    0    1
kx_os009            log      factor    3.811711      1.0000e-02     3.0000e+01     kx             1    0    1
kx_os010            log      factor    11.56163      1.0000e-02     3.0000e+01     kx             1    0    1
kx_os011            log      factor    14.35120      1.0000e-02     3.0000e+01     kx             1    0    1
kx_os012            log      factor    15.73050      1.0000e-02     3.0000e+01     kx             1    0    1
kx_os013            log      factor    12.66960      1.0000e-02     3.0000e+01     kx             1    0    1
kx_os014            log      factor    16.24988      1.0000e-02     3.0000e+01     kx             1    0    1
kx_os015            log      factor    14.16301      1.0000e-02     3.0000e+01     kx             1    0    1
kx_op001            log       factor    20.39383      1.0000e-03     7.0000e+01     kx             1    0    1
kx_op002            log      factor    33.98868      1.0000e-03     7.0000e+01     kx             1    0    1
kx_op003            log      factor    17.63370      1.0000e-03     7.0000e+01     kx             1    0    1
kx_op004            log      factor    14.90529      1.0000e-03     7.0000e+01     kx             1    0    1
kx_op005            log      factor    7.165353      1.0000e-03     7.0000e+01     kx             1    0    1
kx_op006            log      factor    46.50889      1.0000e-03     7.0000e+01     kx             1    0    1
kx_op007            log      factor   0.4539848      1.0000e-03     7.0000e+01     kx             1    0    1
kx_op008            log      factor   0.9503066      1.0000e-03     7.0000e+01     kx             1    0    1
kx_op009            log      factor    8.378932      1.0000e-03     7.0000e+01     kx             1    0    1
kx_op010            log      factor   0.7694018      1.0000e-03     7.0000e+01     kx             1    0    1
kx_op011            log      factor    11.82994      1.0000e-03     7.0000e+01     kx             1    0    1
kx_op012            log      factor    34.52094      1.0000e-03     7.0000e+01     kx             1    0    1
kx_op013            log      factor    44.48000      1.0000e-03     7.0000e+01     kx             1    0    1
kx_op014            log      factor    6.425271      1.0000e-03     7.0000e+01     kx             1    0    1
kx_op015            log      factor    8.930590      1.0000e-03     7.0000e+01     kx             1    0    1
kx_op016            log      factor    7.287019      1.0000e-03     7.0000e+01     kx             1    0    1
kx_op017            log      factor    4.833069      1.0000e-03     7.0000e+01     kx             1    0    1
kx_op018            log      factor    2.752616      1.0000e-03     7.0000e+01     kx             1    0    1
kx_op019            log      factor    53.30092      1.0000e-03     7.0000e+01     kx             1    0    1
kx_op020            log      factor    6.154009      1.0000e-03     7.0000e+01     kx             1    0    1
kx_cj001            log       factor    7.380185      1.0000e-03     5.0000e+01     kx             1    0    1
kx_cj002            log      factor    8.580275      1.0000e-03     5.0000e+01     kx             1    0    1
kx_cj003            log      factor    6.979179      1.0000e-03     5.0000e+01     kx             1    0    1
kx_cj004            log      factor    12.94309      1.0000e-03     5.0000e+01     kx             1    0    1
kx_cj005            log      factor    5.151687      1.0000e-03     5.0000e+01     kx             1    0    1
kx_cj006            log      factor    11.90372      1.0000e-03     5.0000e+01     kx             1    0    1
kx_cj007            log      factor    5.269450      1.0000e-03     5.0000e+01     kx             1    0    1
kx_cj008            log      factor    10.59143      1.0000e-03     5.0000e+01     kx             1    0    1
kx_cj009            log      factor    4.984891      1.0000e-03     5.0000e+01     kx             1    0    1
kx_cj010            log      factor    6.112330      1.0000e-03     5.0000e+01     kx             1    0    1
kx_cj011            log      factor    16.74325      1.0000e-03     5.0000e+01     kx             1    0    1
kx_cj012            log      factor    21.77909      1.0000e-03     5.0000e+01     kx             1    0    1
kx_cj013            log      factor    15.05563      1.0000e-03     5.0000e+01     kx             1    0    1
kx_cj014            log      factor    30.02710      1.0000e-03     5.0000e+01     kx             1    0    1
kx_cj015            log      factor    3.541928      1.0000e-03     5.0000e+01     kx             1    0    1
kx_cj016            log      factor    3.219044      1.0000e-03     5.0000e+01     kx             1    0    1
kx_cj017            log      factor    33.74089      1.0000e-03     5.0000e+01     kx             1    0    1
kx_cj018            log      factor    6.194483      1.0000e-03     5.0000e+01     kx             1    0    1
kx_cj019            log      factor    7.021751      1.0000e-03     5.0000e+01     kx             1    0    1
kx_cj020            log      factor    6.456389      1.0000e-03     5.0000e+01     kx             1    0    1
kx_csl001           log      factor   0.2738616      1.0000e-02     3.0000e+01     kx             1    0    1
kx_csl002           log      factor   0.2755720      1.0000e-02     3.0000e+01     kx             1    0    1
kx_csl003           log      factor   0.1511803      1.0000e-02     3.0000e+01     kx             1    0    1
kx_csl004           log      factor   0.3545995      1.0000e-02     3.0000e+01     kx             1    0    1
kx_csl005           log      factor   0.3250519      1.0000e-02     3.0000e+01     kx             1    0    1
kx_csl006           log      factor   0.2705210      1.0000e-02     3.0000e+01     kx             1    0    1
kx_csl007           log      factor   0.1524810      1.0000e-02     3.0000e+01     kx             1    0    1
kx_csl008           log      factor   0.4128386      1.0000e-02     3.0000e+01     kx             1    0    1
kx_csl009           log      factor   0.3006636      1.0000e-02     3.0000e+01     kx             1    0    1
kx_csl010           log      factor   0.1683758      1.0000e-02     3.0000e+01     kx             1    0    1
kx_csl011           log      factor    3.451133      1.0000e-02     3.0000e+01     kx             1    0    1
kx_csl012           log      factor   0.2934289      1.0000e-02     3.0000e+01     kx             1    0    1
kx_csl013           log      factor   0.6184151      1.0000e-02     3.0000e+01     kx             1    0    1
kx_csl014           log      factor   0.3150957      1.0000e-02     3.0000e+01     kx             1    0    1
kx_csl015           log      factor   0.3634886      1.0000e-02     3.0000e+01     kx             1    0    1
kx_ctc001           log       factor   0.3086811      1.0000e-01     3.0000e+01     kx             1    0    1
kx_ctc002           log      factor    1.169876      1.0000e-01     3.0000e+01     kx             1    0    1
kx_ctc003           log      factor   0.2750149      1.0000e-01     3.0000e+01     kx             1    0    1
kx_ctc004           log      factor    1.564572      1.0000e-01     3.0000e+01     kx             1    0    1
kx_ctc005           log      factor    1.673615      1.0000e-01     3.0000e+01     kx             1    0    1
kx_ctc006           log      factor   0.2891607      1.0000e-01     3.0000e+01     kx             1    0    1
kx_ctc007           log      factor   0.2791894      1.0000e-01     3.0000e+01     kx             1    0    1
kx_ctc008           log      factor    1.809522      1.0000e-01     3.0000e+01     kx             1    0    1
kx_ctc009           log      factor   0.7942878      1.0000e-01     3.0000e+01     kx             1    0    1
kx_ctc010           log      factor   0.7458911      1.0000e-01     3.0000e+01     kx             1    0    1
kx_ctc011           log      factor    1.321497      1.0000e-01     3.0000e+01     kx             1    0    1
kx_ctc012           log      factor    1.374488      1.0000e-01     3.0000e+01     kx             1    0    1
kx_ctc013           log      factor   0.2818619      1.0000e-01     3.0000e+01     kx             1    0    1
kx_ctc014           log      factor   0.6681602      1.0000e-01     3.0000e+01     kx             1    0    1
kx_ctc015           log      factor   0.7824653      1.0000e-01     3.0000e+01     kx             1    0    1
kx_cw001            log       factor    1.196740      1.0000e-02     2.0000e+01     kx             1    0    1
kx_cw002            log      factor    1.202180      1.0000e-02     2.0000e+01     kx             1    0    1
kx_cw003            log      factor   0.5965497      1.0000e-02     2.0000e+01     kx             1    0    1
kx_cw004            log      factor    3.755024      1.0000e-02     2.0000e+01     kx             1    0    1
kx_cw005            log      factor   0.6416298      1.0000e-02     2.0000e+01     kx             1    0    1
kx_cw006            log      factor   0.8882123      1.0000e-02     2.0000e+01     kx             1    0    1
kx_cw007            log      factor   0.8334538      1.0000e-02     2.0000e+01     kx             1    0    1
kx_cw008            log      factor    2.672073      1.0000e-02     2.0000e+01     kx             1    0    1
kx_cw009            log      factor   0.2735118      1.0000e-02     2.0000e+01     kx             1    0    1
kx_cw010            log      factor   0.4049857      1.0000e-02     2.0000e+01     kx             1    0    1
kx_cw011            log      factor    3.424918      1.0000e-02     2.0000e+01     kx             1    0    1
kx_cw012            log      factor    1.586411      1.0000e-02     2.0000e+01     kx             1    0    1
kx_cw013            log      factor    1.388737      1.0000e-02     2.0000e+01     kx             1    0    1
kx_cw014            log      factor    1.726017      1.0000e-02     2.0000e+01     kx             1    0    1
kx_cw015            log      factor    8.542582      1.0000e-02     2.0000e+01     kx             1    0    1
kx_ce001            log       factor   3.5271089E-05  3.0000e-06     4.0000e+01     kx             1    0    1
kx_ce002            log      factor   3.7975957E-05  3.0000e-06     4.0000e+01     kx             1    0    1
kx_ce003            log      factor   3.6015786E-05  3.0000e-06     4.0000e+01     kx             1    0    1
kx_ce004            log      factor   3.6400206E-05  3.0000e-06     4.0000e+01     kx             1    0    1
kx_ce005            log      factor   3.6056847E-05  3.0000e-06     4.0000e+01     kx             1    0    1
kx_ce006            log      factor   3.5766428E-05  3.0000e-06     4.0000e+01     kx             1    0    1
kx_ce007            log      factor   3.6455862E-05  3.0000e-06     4.0000e+01     kx             1    0    1
kx_ce008            log      factor   3.5645717E-05  3.0000e-06     4.0000e+01     kx             1    0    1
kx_ce009            log      factor   3.6386087E-05  3.0000e-06     4.0000e+01     kx             1    0    1
kx_ce010            log      factor   3.3679831E-05  3.0000e-06     4.0000e+01     kx             1    0    1
kx_ce011            log      factor   3.6259216E-05  3.0000e-06     4.0000e+01     kx             1    0    1
kx_ce012            log      factor   3.7939004E-05  3.0000e-06     4.0000e+01     kx             1    0    1
kx_ce013            log      factor   3.9580514E-05  3.0000e-06     4.0000e+01     kx             1    0    1
kx_ce014            log      factor   3.5034498E-05  3.0000e-06     4.0000e+01     kx             1    0    1
kx_ce015            log      factor   3.5712850E-05  3.0000e-06     4.0000e+01     kx             1    0    1
kx_cms001           log       factor    2.976529      1.0000e-02     1.5000e+01     kx             1    0    1
kx_cms002           log      factor   0.4268759      1.0000e-02     1.5000e+01     kx             1    0    1
kx_cms003           log      factor    7.369028      1.0000e-02     1.5000e+01     kx             1    0    1
kx_cms004           log      factor   0.1128449      1.0000e-02     1.5000e+01     kx             1    0    1
kx_cms005           log      factor    1.292679      1.0000e-02     1.5000e+01     kx             1    0    1
kx_cms006           log      factor    3.189559      1.0000e-02     1.5000e+01     kx             1    0    1
kx_cms007           log      factor    7.544611      1.0000e-02     1.5000e+01     kx             1    0    1
kx_cms008           log      factor   8.6589111E-02  1.0000e-02     1.5000e+01     kx             1    0    1
kx_cms009           log      factor    3.298623      1.0000e-02     1.5000e+01     kx             1    0    1
kx_cms010           log      factor    3.586566      1.0000e-02     1.5000e+01     kx             1    0    1
kx_cms011           log      factor    7.712908      1.0000e-02     1.5000e+01     kx             1    0    1
kx_cms012           log      factor    7.411896      1.0000e-02     1.5000e+01     kx             1    0    1
kx_cms013           log      factor    1.075616      1.0000e-02     1.5000e+01     kx             1    0    1
kx_cms014           log      factor   0.3349636      1.0000e-02     1.5000e+01     kx             1    0    1
kx_cms015           log      factor    2.219227      1.0000e-02     1.5000e+01     kx             1    0    1
kx_ku001            log       factor   0.2423503      1.0000e-04     3.0000e+01     kx             1    0    1
kx_ku002            log      factor   0.2424086      1.0000e-04     3.0000e+01     kx             1    0    1
kx_ku003            log      factor   0.2208193      1.0000e-04     3.0000e+01     kx             1    0    1
an_os001            log       factor    3.256318      1.0000e-01     1.0000e+04     vert_aniso     1    0    1
an_os002            log      factor    3.271466      1.0000e-01     1.0000e+04     vert_aniso     1    0    1
an_os003            log      factor    3.176720      1.0000e-01     1.0000e+04     vert_aniso     1    0    1
an_os004            log      factor    3.314227      1.0000e-01     1.0000e+04     vert_aniso     1    0    1
an_os005            log      factor    3.255344      1.0000e-01     1.0000e+04     vert_aniso     1    0    1
an_os006            log      factor    3.194871      1.0000e-01     1.0000e+04     vert_aniso     1    0    1
an_os007            log      factor    3.255290      1.0000e-01     1.0000e+04     vert_aniso     1    0    1
an_os008            log      factor    3.254686      1.0000e-01     1.0000e+04     vert_aniso     1    0    1
an_os009            log      factor    3.235291      1.0000e-01     1.0000e+04     vert_aniso     1    0    1
an_os010            log      factor    3.256004      1.0000e-01     1.0000e+04     vert_aniso     1    0    1
an_os011            log      factor    3.255437      1.0000e-01     1.0000e+04     vert_aniso     1    0    1
an_os012            log      factor    3.204991      1.0000e-01     1.0000e+04     vert_aniso     1    0    1
an_os013            log      factor    3.257089      1.0000e-01     1.0000e+04     vert_aniso     1    0    1
an_os014            log      factor    3.269077      1.0000e-01     1.0000e+04     vert_aniso     1    0    1
an_os015            log      factor    3.254653      1.0000e-01     1.0000e+04     vert_aniso     1    0    1