pcf
* control data
restart estimation
    235  14100     13      0     30
     1     1   single   point   1   0   0
5.0   2.0    0.3    0.03    10  999
5.0   5.0   1.0e-3
0.1  noaui
0 .005 4 4 .005 4 
1    1    1
* parameter groups
4_prms       relative     1.0000E-02   0.000      switch      2.000      parabolic
3_precip     relative     1.0000E-02   0.000      switch      2.000      parabolic
3_snow       relative     1.0000E-02   0.000      switch      2.000      parabolic
2_evap       relative     1.0000E-02   0.000      switch      2.000      parabolic
0_evap       relative     1.0000E-02   0.000      switch      2.000      parabolic
0_snow       relative     1.0000E-02   0.000      switch      2.000      parabolic
4_szone      relative     1.0000E-02   0.000      switch      2.000      parabolic
0_szone      relative     1.0000E-02   0.000      switch      2.000      parabolic
1_solrad     relative     1.0000E-02   0.000      switch      2.000      parabolic
0_precip     relative     1.0000E-02   0.000      switch      2.000      parabolic
0_solrad     relative     1.0000E-02   0.000      switch      2.000      parabolic
4_runoff     relative     1.0000E-02   0.000      switch      2.000      parabolic
0_runoff     relative     1.0000E-02   0.000      switch      2.000      parabolic
* parameter data
gwfcf_gm1    log    factor       0.10384       0.10000        1.1000      4_prms         1.000      -.1000        1
gwfcf_gm2    log    factor       0.10384       0.10000        1.1000      4_prms         1.000      -.1000        1
gwfcf_gm3    log    factor       0.11795       0.10000        1.1000      4_prms         1.000      -.1000        1
gwfcf_gm4    log    factor       0.10608       0.10000        1.1000      4_prms         1.000      -.1000        1
gwfcf_gm5    log    factor       0.11039       0.10000        1.1000      4_prms         1.000      -.1000        1
gwfcf_gm6    log    factor       0.15724       0.10000        1.1000      4_prms         1.000      -.1000        1
gwfcf_gm7    log    factor       0.10384       0.10000        1.1000      4_prms         1.000      -.1000        1
gwfcf_gm8    log    factor       0.23771       0.10000        1.1000      4_prms         1.000      -.1000        1
gwfcf_gm9    log    factor       0.38395       0.10000        1.1000      4_prms         1.000      -.1000        1
gwscf_gm1    log    factor       0.40944       0.10000        1.1000      4_prms         1.000      -.1000        1
gwscf_gm2    log    factor       0.12502       0.10000        1.1000      4_prms         1.000      -.1000        1
gwscf_gm3    log    factor       0.10000       0.10000        1.1000      4_prms         1.000      -.1000        1
gwscf_gm4    log    factor       0.10136       0.10000        1.1000      4_prms         1.000      -.1000        1
gwscf_gm5    log    factor       0.50135       0.10000        1.1000      4_prms         1.000      -.1000        1
gwscf_gm6    log    factor       0.12502       0.10000        1.1000      4_prms         1.000      -.1000        1
gwscf_gm7    log    factor       0.16517       0.10000        1.1000      4_prms         1.000      -.1000        1
gwscf_gm8    log    factor       0.12502       0.10000        1.1000      4_prms         1.000      -.1000        1
gwscf_gm9    log    factor       0.12502       0.10000        1.1000      4_prms         1.000      -.1000        1
admxrn_m     log    factor        1.1022       0.10000        3.1000      3_precip       1.000      -.1000        1
adjran_01    log    factor       0.11572       0.10000        5.1000      3_precip       1.000      -.1000        1
adjran_02    log    factor       0.16379       0.10000        5.1000      3_precip       1.000      -.1000        1
adjran_03    log    factor       0.29138       0.10000        5.1000      3_precip       1.000      -.1000        1
adjran_04    log    factor       0.10000       0.10000        5.1000      3_precip       1.000      -.1000        1
adjran_05    log    factor       0.10000       0.10000        5.1000      3_precip       1.000      -.1000        1
adjran_06    log    factor       0.10000       0.10000        5.1000      3_precip       1.000      -.1000        1
adjran_07    log    factor       0.10000       0.10000        5.1000      3_precip       1.000      -.1000        1
adjran_08    log    factor       0.13985       0.10000        5.1000      3_precip       1.000      -.1000        1
adjran_09    log    factor       0.10000       0.10000        5.1000      3_precip       1.000      -.1000        1
adjran_10    log    factor       0.10000       0.10000        5.1000      3_precip       1.000      -.1000        1
adjran_11    log    factor       0.10000       0.10000        5.1000      3_precip       1.000      -.1000        1
adjran_12    log    factor       0.13713       0.10000        5.1000      3_precip       1.000      -.1000        1
adjsno_01    log    factor       0.43440       0.10000        5.1000      3_precip       1.000      -.1000        1
adjsno_02    log    factor       0.63166       0.10000        5.1000      3_precip       1.000      -.1000        1
adjsno_03    log    factor       0.47635       0.10000        5.1000      3_precip       1.000      -.1000        1
adjsno_04    log    factor       0.29317       0.10000        5.1000      3_precip       1.000      -.1000        1
adjsno_05    log    factor       0.26400       0.10000        5.1000      3_precip       1.000      -.1000        1
adjsno_06    log    factor       0.26400       0.10000        5.1000      3_precip       1.000      -.1000        1
adjsno_07    log    factor       0.26400       0.10000        5.1000      3_precip       1.000      -.1000        1
adjsno_08    log    factor       0.26400       0.10000        5.1000      3_precip       1.000      -.1000        1
adjsno_09    log    factor       0.26400       0.10000        5.1000      3_precip       1.000      -.1000        1
adjsno_10    log    factor       0.76630       0.10000        5.1000      3_precip       1.000      -.1000        1
adjsno_11    log    factor       0.21314       0.10000        5.1000      3_precip       1.000      -.1000        1
adjsno_12    log    factor       0.15379       0.10000        5.1000      3_precip       1.000      -.1000        1
tmaxrn_m     log    factor        37.941       0.10000        90.100      3_precip       1.000      -.1000        1
tmaxsn_m     log    factor        42.613       0.10000        50.100      3_precip       1.000      -10.10        1
petsub_m     log    factor       0.75000       0.10000       0.75000      3_snow         1.000       0.000        1
jhcfhr_gm1   log    factor        19.824        5.0000        22.500      2_evap         1.000       0.000        1
jhcfhr_gm2   log    factor        19.824        5.0000        22.500      2_evap         1.000       0.000        1
jhcfhr_gm3   log    factor        19.824        5.0000        22.500      2_evap         1.000       0.000        1
jhcfhr_gm4   log    factor        19.824        5.0000        22.500      2_evap         1.000       0.000        1
jhcfhr_gm5   log    factor        19.824        5.0000        22.500      2_evap         1.000       0.000        1
jhcfhr_gm6   log    factor        19.824        5.0000        22.500      2_evap         1.000       0.000        1
jhcfhr_gm7   log    factor        19.824        5.0000        22.500      2_evap         1.000       0.000        1
jhcfhr_gm8   log    factor        19.824        5.0000        22.500      2_evap         1.000       0.000        1
jhcfhr_gm9   log    factor        19.824        5.0000        22.500      2_evap         1.000       0.000        1
trtmax_m     log    factor        225.08       0.10000        1000.1      0_evap         1.000      -.1000        1
jhcoef_01    log    factor       5.35497E-03   1.00000E-03   6.00000E-02  2_evap         1.000       0.000        1
jhcoef_02    log    factor       9.52259E-03   1.00000E-03   6.00000E-02  2_evap         1.000       0.000        1
jhcoef_03    log    factor       1.10708E-02   1.00000E-03   6.00000E-02  2_evap         1.000       0.000        1
jhcoef_04    log    factor       1.27033E-02   1.00000E-03   6.00000E-02  2_evap         1.000       0.000        1
jhcoef_05    log    factor       8.49336E-03   1.00000E-03   6.00000E-02  2_evap         1.000       0.000        1
jhcoef_06    log    factor       5.85100E-03   1.00000E-03   6.00000E-02  2_evap         1.000       0.000        1
jhcoef_07    log    factor       1.27900E-02   1.00000E-03   6.00000E-02  2_evap         1.000       0.000        1
jhcoef_08    log    factor       8.51090E-03   1.00000E-03   6.00000E-02  2_evap         1.000       0.000        1
jhcoef_09    log    factor       7.76435E-03   1.00000E-03   6.00000E-02  2_evap         1.000       0.000        1
jhcoef_10    log    factor       1.60063E-02   1.00000E-03   6.00000E-02  2_evap         1.000       0.000        1
jhcoef_11    log    factor       2.37713E-02   1.00000E-03   6.00000E-02  2_evap         1.000       0.000        1
jhcoef_12    log    factor       1.27969E-02   1.00000E-03   6.00000E-02  2_evap         1.000       0.000        1
rdtrnc_m     log    factor        1.0379       0.48559        1.0379      0_snow         1.000      -.1000        1
cecncf_m     log    factor       0.96418       0.10000        20.100      3_snow         1.000      -.1000        1
albrna_m     log    factor       0.86015       0.10000        1.1000      0_snow         1.000      -.1000        1
albrnm_m     log    factor       0.48060       0.10000        1.1000      0_snow         1.000      -.1000        1
albsna_m     log    factor       0.18385       1.00000E-03    1.0000      0_snow         1.000       0.000        1
albsnm_m     log    factor       0.19425       1.00000E-03    1.0000      0_snow         1.000       0.000        1
denmax_m     log    factor       0.80000       0.10000       0.80000      0_snow         1.000       0.000        1
emisno_m     log    factor       0.76052       0.75700        1.0000      3_snow         1.000       0.000        1
freecp_m     log    factor       3.10700E-02   1.00000E-02   0.20000      3_snow         1.000       0.000        1
settlc_m     log    factor       0.26202       1.00000E-02   0.50000      0_snow         1.000       0.000        1
fintln_gm1   log    factor       0.29021       0.10000        1.1000      4_szone        1.000      -.1000        1
fintln_gm2   log    factor       0.29021       0.10000        1.1000      4_szone        1.000      -.1000        1
fintln_gm3   log    factor       0.37021       0.10000        1.1000      4_szone        1.000      -.1000        1
fintln_gm4   log    factor       0.29021       0.10000        1.1000      4_szone        1.000      -.1000        1
fintln_gm5   log    factor       0.37021       0.10000        1.1000      4_szone        1.000      -.1000        1
fintln_gm6   log    factor       0.29021       0.10000        1.1000      4_szone        1.000      -.1000        1
fintln_gm7   log    factor       0.37021       0.10000        1.1000      4_szone        1.000      -.1000        1
fintln_gm8   log    factor       0.29021       0.10000        1.1000      4_szone        1.000      -.1000        1
fintln_gm9   log    factor       0.29021       0.10000        1.1000      4_szone        1.000      -.1000        1
fintsq_gm1   log    factor       0.60289       0.10000        1.1000      4_szone        1.000      -.1000        1
fintsq_gm2   log    factor       0.60289       0.10000        1.1000      4_szone        1.000      -.1000        1
fintsq_gm3   log    factor        1.1000       0.10000        1.1000      4_szone        1.000      -.1000        1
fintsq_gm4   log    factor       0.60289       0.10000        1.1000      4_szone        1.000      -.1000        1
fintsq_gm5   log    factor        1.1000       0.10000        1.1000      4_szone        1.000      -.1000        1
fintsq_gm6   log    factor       0.60289       0.10000        1.1000      4_szone        1.000      -.1000        1
fintsq_gm7   log    factor        1.1000       0.10000        1.1000      4_szone        1.000      -.1000        1
fintsq_gm8   log    factor       0.60289       0.10000        1.1000      4_szone        1.000      -.1000        1
fintsq_gm9   log    factor       0.60289       0.10000        1.1000      4_szone        1.000      -.1000        1
prfldn_gm1   log    factor       0.26131       0.10000        1.1000      0_szone        1.000      -.1000        1
prfldn_gm2   log    factor       0.26173       0.10000        1.1000      0_szone        1.000      -.1000        1
prfldn_gm3   log    factor       0.26011       0.10000        1.1000      0_szone        1.000      -.1000        1
prfldn_gm4   log    factor       0.26143       0.10000        1.1000      0_szone        1.000      -.1000        1
prfldn_gm5   log    factor       0.25970       0.10000        1.1000      0_szone        1.000      -.1000        1
prfldn_gm6   log    factor       0.26132       0.10000        1.1000      0_szone        1.000      -.1000        1
prfldn_gm7   log    factor       0.26032       0.10000        1.1000      0_szone        1.000      -.1000        1
prfldn_gm8   log    factor       0.26161       0.10000        1.1000      0_szone        1.000      -.1000        1
prfldn_gm9   log    factor       0.26150       0.10000        1.1000      0_szone        1.000      -.1000        1
satthr_gm1   log    factor        21.959        14.876        997.96      4_szone        1.000       0.000        1
satthr_gm2   log    factor        21.061        12.910        997.06      4_szone        1.000       0.000        1
satthr_gm3   log    factor        23.000        1.0000        999.00      4_szone        1.000       0.000        1
satthr_gm4   log    factor        22.143        12.143        998.14      4_szone        1.000       0.000        1
satthr_gm5   log    factor        23.000        1.0000        999.00      4_szone        1.000       0.000        1
satthr_gm6   log    factor        22.115        7.7820        998.12      4_szone        1.000       0.000        1
satthr_gm7   log    factor        20.479        19.279        996.48      4_szone        1.000       0.000        1
satthr_gm8   log    factor        21.900        21.900        997.90      4_szone        1.000       0.000        1
satthr_gm9   log    factor        23.000        1.0000        999.00      4_szone        1.000       0.000        1
sintln_gm1   log    factor       0.11199       0.10000        1.1000      4_szone        1.000      -.1000        1
sintln_gm2   log    factor       0.11199       0.10000        1.1000      4_szone        1.000      -.1000        1
sintln_gm3   log    factor       0.10000       0.10000        1.1000      4_szone        1.000      -.1000        1
sintln_gm4   log    factor       0.11199       0.10000        1.1000      4_szone        1.000      -.1000        1
sintln_gm5   log    factor       0.10000       0.10000        1.1000      4_szone        1.000      -.1000        1
sintln_gm6   log    factor       0.11199       0.10000        1.1000      4_szone        1.000      -.1000        1
sintln_gm7   log    factor       0.10000       0.10000        1.1000      4_szone        1.000      -.1000        1
sintln_gm8   log    factor       0.11199       0.10000        1.1000      4_szone        1.000      -.1000        1
sintln_gm9   log    factor       0.11199       0.10000        1.1000      4_szone        1.000      -.1000        1
sintsq_gm1   log    factor       0.18656       0.10000        1.1000      4_szone        1.000      -.1000        1
sintsq_gm2   log    factor       0.18656       0.10000        1.1000      4_szone        1.000      -.1000        1
sintsq_gm3   log    factor       0.18656       0.10000        1.1000      4_szone        1.000      -.1000        1
sintsq_gm4   log    factor       0.18656       0.10000        1.1000      4_szone        1.000      -.1000        1
sintsq_gm5   log    factor       0.18656       0.10000        1.1000      4_szone        1.000      -.1000        1
sintsq_gm6   log    factor       0.18656       0.10000        1.1000      4_szone        1.000      -.1000        1
sintsq_gm7   log    factor       0.18656       0.10000        1.1000      4_szone        1.000      -.1000        1
sintsq_gm8   log    factor       0.18656       0.10000        1.1000      4_szone        1.000      -.1000        1
sintsq_gm9   log    factor       0.18656       0.10000        1.1000      4_szone        1.000      -.1000        1
srechm_gm1   tied   factor       0.18656       0.10000        8.7961      4_szone        1.000      -.1000        1
srechm_gm2   tied   factor       0.18656       0.10000        8.7577      4_szone        1.000      -.1000        1
srechm_gm3   tied   factor       0.18656       0.10000        6.6115      4_szone        1.000      -.1000        1
srechm_gm4   tied   factor       0.18656       0.10000        8.6616      4_szone        1.000      -.1000        1
srechm_gm5   tied   factor       0.18656       0.10000        6.8919      4_szone        1.000      -.1000        1
srechm_gm6   tied   factor       0.18656       0.10000        8.6519      4_szone        1.000      -.1000        1
srechm_gm7   tied   factor       0.18656       0.10000        7.0321      4_szone        1.000      -.1000        1
srechm_gm8   tied   factor       0.18656       0.10000        8.7673      4_szone        1.000      -.1000        1
srechm_gm9   tied   factor       0.18656       0.10000        8.7673      4_szone        1.000      -.1000        1
so2gwm_gm1   log    factor       0.10028       0.10000        5.1000      4_szone        1.000      -.1000        1
so2gwm_gm2   log    factor       0.10030       0.10000        5.1000      4_szone        1.000      -.1000        1
so2gwm_gm3   log    factor        1.1356       0.10000        5.1000      4_szone        1.000      -.1000        1
so2gwm_gm4   log    factor       0.10048       0.10000        5.1000      4_szone        1.000      -.1000        1
so2gwm_gm5   log    factor        1.7533       0.10000        5.1000      4_szone        1.000      -.1000        1
so2gwm_gm6   log    factor       0.10000       0.10000        5.1000      4_szone        1.000      -.1000        1
so2gwm_gm7   log    factor        1.9979       0.10000        5.1000      4_szone        1.000      -.1000        1
so2gwm_gm8   log    factor       0.10015       0.10000        5.1000      4_szone        1.000      -.1000        1
so2gwm_gm9   log    factor       0.10091       0.10000        5.1000      4_szone        1.000      -.1000        1
ss2gwx_gm1   log    factor       0.87146       0.10000        3.1000      0_szone        1.000      -.1000        1
ss2gwx_gm2   log    factor        1.4563       0.10000        3.1000      0_szone        1.000      -.1000        1
ss2gwx_gm3   log    factor       0.14545       0.10000        3.1000      0_szone        1.000      -.1000        1
ss2gwx_gm4   log    factor        1.8241       0.10000        3.1000      0_szone        1.000      -.1000        1
ss2gwx_gm5   log    factor       0.10061       0.10000        3.1000      0_szone        1.000      -.1000        1
ss2gwx_gm6   log    factor        1.1393       0.10000        3.1000      0_szone        1.000      -.1000        1
ss2gwx_gm7   log    factor       0.10000       0.10000        3.1000      0_szone        1.000      -.1000        1
ss2gwx_gm8   log    factor       0.97150       0.10000        3.1000      0_szone        1.000      -.1000        1
ss2gwx_gm9   log    factor        1.4809       0.10000        3.1000      0_szone        1.000      -.1000        1
ss2gwr_gm1   log    factor       0.88066       0.10000        1.1000      4_szone        1.000      -.1000        1
ss2gwr_gm2   log    factor        1.0111       0.10000        1.1000      4_szone        1.000      -.1000        1
ss2gwr_gm3   log    factor       0.69333       0.10000        1.1000      4_szone        1.000      -.1000        1
ss2gwr_gm4   log    factor        1.1000       0.10000        1.1000      4_szone        1.000      -.1000        1
ss2gwr_gm5   log    factor       0.68751       0.10000        1.1000      4_szone        1.000      -.1000        1
ss2gwr_gm6   log    factor       0.94678       0.10000        1.1000      4_szone        1.000      -.1000        1
ss2gwr_gm7   log    factor       0.68701       0.10000        1.1000      4_szone        1.000      -.1000        1
ss2gwr_gm8   log    factor       0.90021       0.10000        1.1000      4_szone        1.000      -.1000        1
ss2gwr_gm9   log    factor        1.0154       0.10000        1.1000      4_szone        1.000      -.1000        1
ddayin_01    log    factor        58.686       0.10000        84.100      1_solrad       1.000      -80.10        1
ddayin_02    log    factor        77.227       0.10000        84.100      1_solrad       1.000      -80.10        1
ddayin_03    log    factor        51.912       0.10000        84.100      1_solrad       1.000      -80.10        1
ddayin_04    log    factor        65.160       0.10000        84.100      1_solrad       1.000      -80.10        1
ddayin_05    log    factor        72.824       0.10000        84.100      1_solrad       1.000      -80.10        1
ddayin_06    log    factor        21.349       0.10000        84.100      1_solrad       1.000      -80.10        1
ddayin_07    log    factor        20.100       0.10000        84.100      1_solrad       1.000      -80.10        1
ddayin_08    log    factor        20.100       0.10000        84.100      1_solrad       1.000      -80.10        1
ddayin_09    log    factor        36.846       0.10000        84.100      1_solrad       1.000      -80.10        1
ddayin_10    log    factor        34.350       0.10000        84.100      1_solrad       1.000      -80.10        1
ddayin_11    log    factor        53.800       0.10000        84.100      1_solrad       1.000      -80.10        1
ddayin_12    log    factor        63.634       0.10000        84.100      1_solrad       1.000      -80.10        1
ddaysl_01    log    factor       0.90000       0.20000        1.1000      1_solrad       1.000       0.000        1
ddaysl_02    log    factor       0.36059       0.20000        1.1000      1_solrad       1.000       0.000        1
ddaysl_03    log    factor       0.82482       0.20000        1.1000      1_solrad       1.000       0.000        1
ddaysl_04    log    factor       0.27119       0.20000        1.1000      1_solrad       1.000       0.000        1
ddaysl_05    log    factor       0.40310       0.20000        1.1000      1_solrad       1.000       0.000        1
ddaysl_06    log    factor       0.90000       0.20000        1.1000      1_solrad       1.000       0.000        1
ddaysl_07    log    factor       0.86522       0.20000        1.1000      1_solrad       1.000       0.000        1
ddaysl_08    log    factor       0.71011       0.20000        1.1000      1_solrad       1.000       0.000        1
ddaysl_09    log    factor       0.90000       0.20000        1.1000      1_solrad       1.000       0.000        1
ddaysl_10    log    factor       0.62789       0.20000        1.1000      1_solrad       1.000       0.000        1
ddaysl_11    log    factor       0.20000       0.20000        1.1000      1_solrad       1.000       0.000        1
ddaysl_12    log    factor       0.48652       0.20000        1.1000      1_solrad       1.000       0.000        1
pprdad_m     log    factor       0.10000       0.10000       0.60000      0_precip       1.000      -.1000        1
tmaxin_m     log    factor        69.452       0.10000        100.00      0_solrad       1.000      -.1000        1
rdadin_m     log    factor       0.32028       1.00000E-10    1.0000      0_solrad       1.000       0.000        1
rdadsl_m     log    factor       0.11667       0.10000        1.1000      0_solrad       1.000      -.1000        1
radspp_m     log    factor       0.15043       0.10000        1.1000      0_solrad       1.000      -.1000        1
radwpp_m     log    factor       0.72183       0.10000        1.1000      0_solrad       1.000      -.1000        1
caream_m     log    factor       0.66780       0.33019       0.93019      4_runoff       1.000      -.1000        1
smdxcf_gm1   log    factor       2.28452E-02   1.00000E-04    1.0000      4_runoff       1.000       0.000        1
smdxcf_gm2   log    factor       1.96652E-02   1.00000E-04    1.0000      4_runoff       1.000       0.000        1
smdxcf_gm3   log    factor       3.57223E-03   1.00000E-04    1.0000      4_runoff       1.000       0.000        1
smdxcf_gm4   log    factor       1.84652E-02   1.00000E-04    1.0000      4_runoff       1.000       0.000        1
smdxcf_gm5   log    factor       3.56838E-03   1.00000E-04    1.0000      4_runoff       1.000       0.000        1
smdxcf_gm6   log    factor       1.84652E-02   1.00000E-04    1.0000      4_runoff       1.000       0.000        1
smdxcf_gm7   log    factor       3.56524E-03   1.00000E-04    1.0000      4_runoff       1.000       0.000        1
smdxcf_gm8   log    factor       2.18252E-02   1.00000E-04    1.0000      4_runoff       1.000       0.000        1
smdxcf_gm9   log    factor       2.25452E-02   1.00000E-04    1.0000      4_runoff       1.000       0.000        1
smdxex_gm1   log    factor       0.21531       0.10000       0.80000      4_runoff       1.000       0.000        1
smdxex_gm2   log    factor       0.21081       0.10000       0.80000      4_runoff       1.000       0.000        1
smdxex_gm3   log    factor       0.20000       0.10000       0.80000      4_runoff       1.000       0.000        1
smdxex_gm4   log    factor       0.20000       0.10000       0.80000      4_runoff       1.000       0.000        1
smdxex_gm5   log    factor       0.20000       0.10000       0.80000      4_runoff       1.000       0.000        1
smdxex_gm6   log    factor       0.21802       0.10000       0.80000      4_runoff       1.000       0.000        1
smdxex_gm7   log    factor       0.20000       0.10000       0.80000      4_runoff       1.000       0.000        1
smdxex_gm8   log    factor       0.20901       0.10000       0.80000      4_runoff       1.000       0.000        1
smdxex_gm9   log    factor       0.20000       0.10000       0.80000      4_runoff       1.000       0.000        1
snoinm_gm1   log    factor        1.2002       0.10000        20.100      0_runoff       1.000      -.1000        1
snoinm_gm2   log    factor        1.1976       0.10000        20.100      0_runoff       1.000      -.1000        1
snoinm_gm3   log    factor        1.4001       0.10000        20.100      0_runoff       1.000      -.1000        1
snoinm_gm4   log    factor        1.1338       0.10000        20.100      0_runoff       1.000      -.1000        1
snoinm_gm5   log    factor        1.3850       0.10000        20.100      0_runoff       1.000      -.1000        1
snoinm_gm6   log    factor        1.0777       0.10000        20.100      0_runoff       1.000      -.1000        1
snoinm_gm7   log    factor        1.5048       0.10000        20.100      0_runoff       1.000      -.1000        1
snoinm_gm8   log    factor        1.2380       0.10000        20.100      0_runoff       1.000      -.1000        1
snoinm_gm9   log    factor        1.2498       0.10000        20.100      0_runoff       1.000      -.1000        1
smoism_gm1   log    factor        1.3958       0.10000        20.100      4_szone        1.000      -.1000        1
smoism_gm2   log    factor        1.4390       0.10000        20.100      4_szone        1.000      -.1000        1
smoism_gm3   log    factor        3.9629       0.10000        20.100      4_szone        1.000      -.1000        1
smoism_gm4   log    factor        1.5592       0.10000        20.100      4_szone        1.000      -.1000        1
smoism_gm5   log    factor        3.6404       0.10000        20.100      4_szone        1.000      -.1000        1
smoism_gm6   log    factor        1.5688       0.10000        20.100      4_szone        1.000      -.1000        1
smoism_gm7   log    factor        3.4722       0.10000        20.100      4_szone        1.000      -.1000        1
smoism_gm8   log    factor        1.4294       0.10000        20.100      4_szone        1.000      -.1000        1
smoism_gm9   log    factor        1.4294       0.10000        20.100      4_szone        1.000      -.1000        1
srechm_gm1   smoism_gm1
srechm_gm2   smoism_gm2
srechm_gm3   smoism_gm3
srechm_gm4   smoism_gm4
srechm_gm5   smoism_gm5
srechm_gm6   smoism_gm6
srechm_gm7   smoism_gm7
srechm_gm8   smoism_gm8
srechm_gm9   smoism_gm9
* observation groups
solrdm
potetm
snow
lbecbe
becbea
becbem
becbe_p
lbrew
brewa
brewm
brew_p
lgarf
garfa
garfm
garf_p
lphbr
phbra
phbrm
phbr_p
lmazo
mazoa
mazom
mazo_p
lverm
verma
vermm
verm_p
lhalfp
halfpa
halfpm
* observation data
solrdm_1               244.3500         1.00000      solrdm
solrdm_2               157.6700         1.00000      solrdm
solrdm_3               110.5400         1.00000      solrdm
solrdm_4               145.6800         1.00000      solrdm
solrdm_5               216.8600         1.00000      solrdm
solrdm_6               312.4900         1.00000      solrdm
solrdm_7               422.6100         1.00000      solrdm
solrdm_8               506.1100         1.00000      solrdm
solrdm_9               535.5900         1.00000      solrdm
solrdm_10              515.0500         1.00000      solrdm