pcf
* control data
restart estimation
   1725  13001      6       0      2
    6     2 single point   1   0   0
  5.0  -3.0   0.3  0.03    10
 20.0  20.0 0.001  0
  0.1
    1  0.01     3     3  0.01     3
    1     1     1
* parameter groups
HK     relative 0.02  0.0  switch  2.0 parabolic
ANIZ   relative 0.02  0.0  switch  2.0 parabolic
HTR    relative 0.02  0.0  switch  2.0 parabolic
HTS    relative 0.02  0.0  switch  2.0 parabolic
ALFA   relative 0.02  0.0  switch  2.0 parabolic
THET   relative 0.02  0.0  switch  2.0 parabolic
* parameter data
hk_086            log  factor    1.906414      1.0000000e-05  2.0100000e+01     hk      1.0000      0.0000   1
hk_087            log  factor    1.321539      1.0000000e-05  2.0100000e+01     hk      1.0000      0.0000   1
hk_088            log  factor    1.341194      1.0000000e-05  2.0100000e+01     hk      1.0000      0.0000   1
hk_089            log  factor    1.493707      1.0000000e-05  2.0100000e+01     hk      1.0000      0.0000   1
hk_090            log  factor    1.395716      1.0000000e-05  2.0100000e+01     hk      1.0000      0.0000   1
hk_091            log  factor   1.2996895E-02  1.0000000e-05  2.0100000e+01     hk      1.0000      0.0000   1
hk_103            log  factor    1.361692      1.0000000e-05  2.0100000e+01     hk      1.0000      0.0000   1
hk_104            log  factor    1.016630      1.0000000e-05  2.0100000e+01     hk      1.0000      0.0000   1
hk_105            log  factor    1.726024      1.0000000e-05  2.0100000e+01     hk      1.0000      0.0000   1
hk_106            log  factor    1.462499      1.0000000e-05  2.0100000e+01     hk      1.0000      0.0000   1
hk_107            log  factor    1.581430      1.0000000e-05  2.0100000e+01     hk      1.0000      0.0000   1
hk_108            log  factor    1.421993      1.0000000e-05  2.0100000e+01     hk      1.0000      0.0000   1
hk_109            log  factor   1.4338715E-02  1.0000000e-05  2.0100000e+01     hk      1.0000      0.0000   1
hk_112            log  factor   1.0978534E-02  1.0000000e-05  2.0100000e+01     hk      1.0000      0.0000   1
hk_113            log  factor   2.1938331E-02  1.0000000e-05  2.0100000e+01     hk      1.0000      0.0000   1
hk_121            log  factor    1.577195      1.0000000e-05  2.0100000e+01     hk      1.0000      0.0000   1
hk_122            log  factor    1.418981      1.0000000e-05  2.0100000e+01     hk      1.0000      0.0000   1
hk_123            log  factor    1.621322      1.0000000e-05  2.0100000e+01     hk      1.0000      0.0000   1
hk_124            log  factor    1.301814      1.0000000e-05  2.0100000e+01     hk      1.0000      0.0000   1
hk_125            log  factor    1.428013      1.0000000e-05  2.0100000e+01     hk      1.0000      0.0000   1
hk_126            log  factor    1.469613      1.0000000e-05  2.0100000e+01     hk      1.0000      0.0000   1
hk_127            log  factor   1.5256543E-02  1.0000000e-05  2.0100000e+01     hk      1.0000      0.0000   1
hk_128            log  factor   1.6761229E-02  1.0000000e-05  2.0100000e+01     hk      1.0000      0.0000   1
hk_129            log  factor   1.5765831E-02  1.0000000e-05  2.0100000e+01     hk      1.0000      0.0000   1
hk_130            log  factor   7.7867660E-03  1.0000000e-05  2.0100000e+01     hk      1.0000      0.0000   1
hk_131            log  factor   3.4531667E-02  1.0000000e-05  2.0100000e+01     hk      1.0000      0.0000   1
hk_132            log  factor   9.4161078E-03  1.0000000e-05  2.0100000e+01     hk      1.0000      0.0000   1
hk_139            log  factor    1.701623      1.0000000e-05  2.0100000e+01     hk      1.0000      0.0000   1
hk_140            log  factor   0.9811998      1.0000000e-05  2.0100000e+01     hk      1.0000      0.0000   1
hk_141            log  factor    1.486795      1.0000000e-05  2.0100000e+01     hk      1.0000      0.0000   1
hk_142            log  factor    1.379745      1.0000000e-05  2.0100000e+01     hk      1.0000      0.0000   1
hk_143            log  factor    1.405291      1.0000000e-05  2.0100000e+01     hk      1.0000      0.0000   1
hk_144            log  factor    1.283175      1.0000000e-05  2.0100000e+01     hk      1.0000      0.0000   1
hk_145            log  factor   1.6054399E-02  1.0000000e-05  2.0100000e+01     hk      1.0000      0.0000   1
hk_146            log  factor   1.5661760E-02  1.0000000e-05  2.0100000e+01     hk      1.0000      0.0000   1
hk_147            log  factor   1.7346741E-02  1.0000000e-05  2.0100000e+01     hk      1.0000      0.0000   1
hk_148            log  factor   1.0872925E-02  1.0000000e-05  2.0100000e+01     hk      1.0000      0.0000   1
hk_149            log  factor   0.1245329      1.0000000e-05  2.0100000e+01     hk      1.0000      0.0000   1
hk_150            log  factor   1.2105153E-02  1.0000000e-05  2.0100000e+01     hk      1.0000      0.0000   1
hk_156            log  factor   0.1858483      1.0000000e-05  2.0100000e+01     hk      1.0000      0.0000   1
hk_157            log  factor   0.4207466      1.0000000e-05  2.0100000e+01     hk      1.0000      0.0000   1
hk_158            log  factor    1.357678      1.0000000e-05  2.0100000e+01     hk      1.0000      0.0000   1
hk_159            log  factor    1.763575      1.0000000e-05  2.0100000e+01     hk      1.0000      0.0000   1
hk_160            log  factor    1.412947      1.0000000e-05  2.0100000e+01     hk      1.0000      0.0000   1
hk_161            log  factor    1.400856      1.0000000e-05  2.0100000e+01     hk      1.0000      0.0000   1
hk_162            log  factor    1.322312      1.0000000e-05  2.0100000e+01     hk      1.0000      0.0000   1
hk_163            log  factor   1.9769336E-02  1.0000000e-05  2.0100000e+01     hk      1.0000      0.0000   1
hk_164            log  factor   2.0695398E-02  1.0000000e-05  2.0100000e+01     hk      1.0000      0.0000   1
hk_165            log  factor   2.0312544E-02  1.0000000e-05  2.0100000e+01     hk      1.0000      0.0000   1
hk_166            log  factor   2.5314809E-02  1.0000000e-05  2.0100000e+01     hk      1.0000      0.0000   1
hk_167            log  factor   5.3338593E-02  1.0000000e-05  2.0100000e+01     hk      1.0000      0.0000   1
hk_168            log  factor   1.2576607E-02  1.0000000e-05  2.0100000e+01     hk      1.0000      0.0000   1
hk_169            log  factor   2.1871487E-04  1.0000000e-05  2.0100000e+01     hk      1.0000      0.0000   1
hk_174            log  factor   1.2528717E-02  1.0000000e-05  2.0100000e+01     hk      1.0000      0.0000   1
hk_175            log  factor   0.1479194      1.0000000e-05  2.0100000e+01     hk      1.0000      0.0000   1
hk_176            log  factor   0.8998644      1.0000000e-05  2.0100000e+01     hk      1.0000      0.0000   1
hk_177            log  factor    1.435280      1.0000000e-05  2.0100000e+01     hk      1.0000      0.0000   1
hk_178            log  factor    1.824953      1.0000000e-05  2.0100000e+01     hk      1.0000      0.0000   1
hk_179            log  factor    1.516392      1.0000000e-05  2.0100000e+01     hk      1.0000      0.0000   1
hk_180            log  factor    1.339140      1.0000000e-05  2.0100000e+01     hk      1.0000      0.0000   1
hk_181            log  factor   2.2862025E-02  1.0000000e-05  2.0100000e+01     hk      1.0000      0.0000   1
hk_182            log  factor   2.1707104E-02  1.0000000e-05  2.0100000e+01     hk      1.0000      0.0000   1
hk_183            log  factor   4.7611629E-02  1.0000000e-05  2.0100000e+01     hk      1.0000      0.0000   1
hk_184            log  factor   1.8777043E-02  1.0000000e-05  2.0100000e+01     hk      1.0000      0.0000   1
hk_185            log  factor   1.1141990E-02  1.0000000e-05  2.0100000e+01     hk      1.0000      0.0000   1
hk_186            log  factor   0.2030729      1.0000000e-05  2.0100000e+01     hk      1.0000      0.0000   1
hk_187            log  factor   0.1427853      1.0000000e-05  2.0100000e+01     hk      1.0000      0.0000   1
hk_188            log  factor   0.2683694      1.0000000e-05  2.0100000e+01     hk      1.0000      0.0000   1
hk_192            log  factor   1.5933798E-02  1.0000000e-05  2.0100000e+01     hk      1.0000      0.0000   1
hk_193            log  factor   0.1814459      1.0000000e-05  2.0100000e+01     hk      1.0000      0.0000   1
hk_194            log  factor    1.067078      1.0000000e-05  2.0100000e+01     hk      1.0000      0.0000   1
hk_195            log  factor    1.543511      1.0000000e-05  2.0100000e+01     hk      1.0000      0.0000   1
hk_196            log  factor    1.584004      1.0000000e-05  2.0100000e+01     hk      1.0000      0.0000   1
hk_197            log  factor    1.456689      1.0000000e-05  2.0100000e+01     hk      1.0000      0.0000   1
hk_198            log  factor    1.283584      1.0000000e-05  2.0100000e+01     hk      1.0000      0.0000   1
hk_199            log  factor   2.5787974E-02  1.0000000e-05  2.0100000e+01     hk      1.0000      0.0000   1
hk_200            log  factor   3.6255819E-02  1.0000000e-05  2.0100000e+01     hk      1.0000      0.0000   1
hk_201            log  factor   5.5836657E-02  1.0000000e-05  2.0100000e+01     hk      1.0000      0.0000   1
hk_202            log  factor   1.3845335E-02  1.0000000e-05  2.0100000e+01     hk      1.0000      0.0000   1
hk_203            log  factor   1.7757699E-02  1.0000000e-05  2.0100000e+01     hk      1.0000      0.0000   1
hk_204            log  factor    1.453586      1.0000000e-05  2.0100000e+01     hk      1.0000      0.0000   1
hk_205            log  factor    1.391155      1.0000000e-05  2.0100000e+01     hk      1.0000      0.0000   1
hk_206            log  factor   0.3287821      1.0000000e-05  2.0100000e+01     hk      1.0000      0.0000   1
hk_207            log  factor    20.10000      1.0000000e-05  2.0100000e+01     hk      1.0000      0.0000   1
hk_208            log  factor    2.182300      1.0000000e-05  2.0100000e+01     hk      1.0000      0.0000   1
hk_209            log  factor   1.1579291E-02  1.0000000e-05  2.0100000e+01     hk      1.0000      0.0000   1
hk_210            log  factor   5.0057402E-02  1.0000000e-05  2.0100000e+01     hk      1.0000      0.0000   1
hk_211            log  factor   0.4692567      1.0000000e-05  2.0100000e+01     hk      1.0000      0.0000   1
hk_212            log  factor    1.066944      1.0000000e-05  2.0100000e+01     hk      1.0000      0.0000   1
hk_213            log  factor    1.321719      1.0000000e-05  2.0100000e+01     hk      1.0000      0.0000   1
hk_214            log  factor    1.267311      1.0000000e-05  2.0100000e+01     hk      1.0000      0.0000   1
hk_215            log  factor    1.359255      1.0000000e-05  2.0100000e+01     hk      1.0000      0.0000   1
hk_216            log  factor    1.361955      1.0000000e-05  2.0100000e+01     hk      1.0000      0.0000   1
hk_217            log  factor   2.3859110E-02  1.0000000e-05  2.0100000e+01     hk      1.0000      0.0000   1
hk_218            log  factor   2.4766289E-02  1.0000000e-05  2.0100000e+01     hk      1.0000      0.0000   1
hk_219            log  factor   5.5267227E-02  1.0000000e-05  2.0100000e+01     hk      1.0000      0.0000   1
hk_220            log  factor   1.5593536E-02  1.0000000e-05  2.0100000e+01     hk      1.0000      0.0000   1
hk_221            log  factor   1.5154015E-02  1.0000000e-05  2.0100000e+01     hk      1.0000      0.0000   1
hk_222            log  factor   0.1159324      1.0000000e-05  2.0100000e+01     hk      1.0000      0.0000   1
hk_223            log  factor    20.10000      1.0000000e-05  2.0100000e+01     hk      1.0000      0.0000   1
hk_224            log  factor    13.95497      1.0000000e-05  2.0100000e+01     hk      1.0000      0.0000   1
hk_225            log  factor    1.176002      1.0000000e-05  2.0100000e+01     hk      1.0000      0.0000   1
hk_226            log  factor   1.3093471E-03  1.0000000e-05  2.0100000e+01     hk      1.0000      0.0000   1
hk_227            log  factor   8.7927028E-02  1.0000000e-05  2.0100000e+01     hk      1.0000      0.0000   1
hk_228            log  factor   0.1321281      1.0000000e-05  2.0100000e+01     hk      1.0000      0.0000   1
hk_229            log  factor    1.196778      1.0000000e-05  2.0100000e+01     hk      1.0000      0.0000   1
hk_230            log  factor    1.549581      1.0000000e-05  2.0100000e+01     hk      1.0000      0.0000   1
hk_231            log  factor    1.175541      1.0000000e-05  2.0100000e+01     hk      1.0000      0.0000   1
hk_232            log  factor    1.262269      1.0000000e-05  2.0100000e+01     hk      1.0000      0.0000   1
hk_233            log  factor    1.283405      1.0000000e-05  2.0100000e+01     hk      1.0000      0.0000   1
hk_234            log  factor    1.323404      1.0000000e-05  2.0100000e+01     hk      1.0000      0.0000   1
hk_235            log  factor   1.9848048E-02  1.0000000e-05  2.0100000e+01     hk      1.0000      0.0000   1
hk_236            log  factor   2.3857245E-02  1.0000000e-05  2.0100000e+01     hk      1.0000      0.0000   1
hk_237            log  factor   2.3702204E-02  1.0000000e-05  2.0100000e+01     hk      1.0000      0.0000   1
hk_238            log  factor   2.0135553E-02  1.0000000e-05  2.0100000e+01     hk      1.0000      0.0000   1
hk_239            log  factor   1.3262050E-02  1.0000000e-05  2.0100000e+01     hk      1.0000      0.0000   1
hk_240            log  factor   0.3264958      1.0000000e-05  2.0100000e+01     hk      1.0000      0.0000   1
hk_241            log  factor    11.29893      1.0000000e-05  2.0100000e+01     hk      1.0000      0.0000   1
hk_242            log  factor    6.138856      1.0000000e-05  2.0100000e+01     hk      1.0000      0.0000   1
hk_243            log  factor   0.3144984      1.0000000e-05  2.0100000e+01     hk      1.0000      0.0000   1
hk_244            log  factor   9.5306792E-02  1.0000000e-05  2.0100000e+01     hk      1.0000      0.0000   1
hk_245            log  factor   0.1924270      1.0000000e-05  2.0100000e+01     hk      1.0000      0.0000   1
hk_246            log  factor   0.7625075      1.0000000e-05  2.0100000e+01     hk      1.0000      0.0000   1
hk_247            log  factor    1.003032      1.0000000e-05  2.0100000e+01     hk      1.0000      0.0000   1
hk_248            log  factor    1.312037      1.0000000e-05  2.0100000e+01     hk      1.0000      0.0000   1
hk_249            log  factor    1.375501      1.0000000e-05  2.0100000e+01     hk      1.0000      0.0000   1
hk_250            log  factor    1.248079      1.0000000e-05  2.0100000e+01     hk      1.0000      0.0000   1
hk_251            log  factor    1.365219      1.0000000e-05  2.0100000e+01     hk      1.0000      0.0000   1
hk_252            log  factor    1.347617      1.0000000e-05  2.0100000e+01     hk      1.0000      0.0000   1
hk_253            log  factor   1.6967711E-02  1.0000000e-05  2.0100000e+01     hk      1.0000      0.0000   1
hk_254            log  factor   2.1771332E-02  1.0000000e-05  2.0100000e+01     hk      1.0000      0.0000   1
hk_255            log  factor   2.6799316E-02  1.0000000e-05  2.0100000e+01     hk      1.0000      0.0000   1
hk_256            log  factor   0.7625155      1.0000000e-05  2.0100000e+01     hk      1.0000      0.0000   1
hk_257            log  factor   0.5708849      1.0000000e-05  2.0100000e+01     hk      1.0000      0.0000   1
hk_258            log  factor   0.7709413      1.0000000e-05  2.0100000e+01     hk      1.0000      0.0000   1
hk_259            log  factor    7.616055      1.0000000e-05  2.0100000e+01     hk      1.0000      0.0000   1
hk_260            log  factor    3.413213      1.0000000e-05  2.0100000e+01     hk      1.0000      0.0000   1
hk_261            log  factor    2.076869      1.0000000e-05  2.0100000e+01     hk      1.0000      0.0000   1
hk_262            log  factor   0.6688549      1.0000000e-05  2.0100000e+01     hk      1.0000      0.0000   1
hk_263            log  factor   0.4708043      1.0000000e-05  2.0100000e+01     hk      1.0000      0.0000   1
hk_264            log  factor    1.017268      1.0000000e-05  2.0100000e+01     hk      1.0000      0.0000   1
hk_265            log  factor    1.136907      1.0000000e-05  2.0100000e+01     hk      1.0000      0.0000   1
hk_266            log  factor    1.096306      1.0000000e-05  2.0100000e+01     hk      1.0000      0.0000   1
hk_267            log  factor    1.451122      1.0000000e-05  2.0100000e+01     hk      1.0000      0.0000   1
hk_268            log  factor    1.357218      1.0000000e-05  2.0100000e+01     hk      1.0000      0.0000   1
hk_269            log  factor    1.457234      1.0000000e-05  2.0100000e+01     hk      1.0000      0.0000   1
hk_270            log  factor    1.473769      1.0000000e-05  2.0100000e+01     hk      1.0000      0.0000   1
hk_271            log  factor   1.5199085E-02  1.0000000e-05  2.0100000e+01     hk      1.0000      0.0000   1
hk_272            log  factor   1.7285476E-02  1.0000000e-05  2.0100000e+01     hk      1.0000      0.0000   1
hk_273            log  factor   2.4045820E-02  1.0000000e-05  2.0100000e+01     hk      1.0000      0.0000   1
hk_274            log  factor   0.6999406      1.0000000e-05  2.0100000e+01     hk      1.0000      0.0000   1
hk_275            log  factor   0.6723539      1.0000000e-05  2.0100000e+01     hk      1.0000      0.0000   1
hk_276            log  factor   0.5916416      1.0000000e-05  2.0100000e+01     hk      1.0000      0.0000   1
hk_277            log  factor    4.965692      1.0000000e-05  2.0100000e+01     hk      1.0000      0.0000   1
hk_278            log  factor    2.052696      1.0000000e-05  2.0100000e+01     hk      1.0000      0.0000   1
hk_279            log  factor   0.7697340      1.0000000e-05  2.0100000e+01     hk      1.0000      0.0000   1
hk_280            log  factor   0.4200179      1.0000000e-05  2.0100000e+01     hk      1.0000      0.0000   1
hk_281            log  factor   0.7577298      1.0000000e-05  2.0100000e+01     hk      1.0000      0.0000   1
hk_282            log  factor    1.283750      1.0000000e-05  2.0100000e+01     hk      1.0000      0.0000   1
hk_283            log  factor    1.313890      1.0000000e-05  2.0100000e+01     hk      1.0000      0.0000   1
hk_284            log  factor    1.274143      1.0000000e-05  2.0100000e+01     hk      1.0000      0.0000   1
hk_285            log  factor    1.650301      1.0000000e-05  2.0100000e+01     hk      1.0000      0.0000   1
hk_286            log  factor    1.497584      1.0000000e-05  2.0100000e+01     hk      1.0000      0.0000   1
hk_287            log  factor    1.499437      1.0000000e-05  2.0100000e+01     hk      1.0000      0.0000   1
hk_288            log  factor    1.380940      1.0000000e-05  2.0100000e+01     hk      1.0000      0.0000   1
hk_289            log  factor   1.4706908E-02  1.0000000e-05  2.0100000e+01     hk      1.0000      0.0000   1
hk_290            log  factor   1.5903027E-02  1.0000000e-05  2.0100000e+01     hk      1.0000      0.0000   1
hk_291            log  factor   2.4177463E-02  1.0000000e-05  2.0100000e+01     hk      1.0000      0.0000   1
hk_292            log  factor   0.8025463      1.0000000e-05  2.0100000e+01     hk      1.0000      0.0000   1
hk_293            log  factor   0.6553757      1.0000000e-05  2.0100000e+01     hk      1.0000      0.0000   1
hk_294            log  factor   0.5491614      1.0000000e-05  2.0100000e+01     hk      1.0000      0.0000   1
hk_295            log  factor    3.118641      1.0000000e-05  2.0100000e+01     hk      1.0000      0.0000   1
hk_296            log  factor    1.877324      1.0000000e-05  2.0100000e+01     hk      1.0000      0.0000   1
hk_297            log  factor    1.059300      1.0000000e-05  2.0100000e+01     hk      1.0000      0.0000   1
hk_298            log  factor   0.8832840      1.0000000e-05  2.0100000e+01     hk      1.0000      0.0000   1
hk_299            log  factor    1.079933      1.0000000e-05  2.0100000e+01     hk      1.0000      0.0000   1
hk_300            log  factor    1.454250      1.0000000e-05  2.0100000e+01     hk      1.0000      0.0000   1
hk_301            log  factor    1.196175      1.0000000e-05  2.0100000e+01     hk      1.0000      0.0000   1
hk_302            log  factor    1.172832      1.0000000e-05  2.0100000e+01     hk      1.0000      0.0000   1
hk_303            log  factor    1.337766      1.0000000e-05  2.0100000e+01     hk      1.0000      0.0000   1
hk_304            log  factor    1.863660      1.0000000e-05  2.0100000e+01     hk      1.0000      0.0000   1
hk_305            log  factor    1.511388      1.0000000e-05  2.0100000e+01     hk      1.0000      0.0000   1
hk_306            log  factor    1.629536      1.0000000e-05  2.0100000e+01     hk      1.0000      0.0000   1
hk_307            log  factor   1.4668091E-02  1.0000000e-05  2.0100000e+01     hk      1.0000      0.0000   1
hk_308            log  factor   1.3824220E-02  1.0000000e-05  2.0100000e+01     hk      1.0000      0.0000   1
hk_309            log  factor   2.0939011E-02  1.0000000e-05  2.0100000e+01     hk      1.0000      0.0000   1
hk_310            log  factor   0.9450170      1.0000000e-05  2.0100000e+01     hk      1.0000      0.0000   1
hk_311            log  factor    1.202362      1.0000000e-05  2.0100000e+01     hk      1.0000      0.0000   1
hk_312            log  factor   0.8169079      1.0000000e-05  2.0100000e+01     hk      1.0000      0.0000   1
hk_313            log  factor    1.815671      1.0000000e-05  2.0100000e+01     hk      1.0000      0.0000   1
hk_314            log  factor    1.663866      1.0000000e-05  2.0100000e+01     hk      1.0000      0.0000   1
hk_315            log  factor    1.212527      1.0000000e-05  2.0100000e+01     hk      1.0000      0.0000   1
hk_316            log  factor    1.441336      1.0000000e-05  2.0100000e+01     hk      1.0000      0.0000   1
hk_317            log  factor    1.398445      1.0000000e-05  2.0100000e+01     hk      1.0000      0.0000   1
hk_318            log  factor    1.571073      1.0000000e-05  2.0100000e+01     hk      1.0000      0.0000   1
hk_319            log  factor    1.409504      1.0000000e-05  2.0100000e+01     hk      1.0000      0.0000   1
hk_320            log  factor    1.221410      1.0000000e-05  2.0100000e+01     hk      1.0000      0.0000   1
hk_321            log  factor    1.260992      1.0000000e-05  2.0100000e+01     hk      1.0000      0.0000   1
hk_322            log  factor    1.156495      1.0000000e-05  2.0100000e+01     hk      1.0000      0.0000   1
hk_323            log  factor    1.443932      1.0000000e-05  2.0100000e+01     hk      1.0000      0.0000   1
hk_324            log  factor    1.285691      1.0000000e-05  2.0100000e+01     hk      1.0000      0.0000   1
hk_325            log  factor   1.4681968E-02  1.0000000e-05  2.0100000e+01     hk      1.0000      0.0000   1
hk_326            log  factor   1.5227016E-02  1.0000000e-05  2.0100000e+01     hk      1.0000      0.0000   1
hk_327            log  factor   2.1216890E-02  1.0000000e-05  2.0100000e+01     hk      1.0000      0.0000   1
hk_328            log  factor   0.9166522      1.0000000e-05  2.0100000e+01     hk      1.0000      0.0000   1
hk_329            log  factor    1.118277      1.0000000e-05  2.0100000e+01     hk      1.0000      0.0000   1
hk_330            log  factor    1.052937      1.0000000e-05  2.0100000e+01     hk      1.0000      0.0000   1
hk_331            log  factor    1.244398      1.0000000e-05  2.0100000e+01     hk      1.0000      0.0000   1
hk_332            log  factor    1.706920      1.0000000e-05  2.0100000e+01     hk      1.0000      0.0000   1
hk_333            log  factor    1.227866      1.0000000e-05  2.0100000e+01     hk      1.0000      0.0000   1
hk_334            log  factor    1.624135      1.0000000e-05  2.0100000e+01     hk      1.0000      0.0000   1
hk_335            log  factor    1.499392      1.0000000e-05  2.0100000e+01     hk      1.0000      0.0000   1
hk_336            log  factor    1.583066      1.0000000e-05  2.0100000e+01     hk      1.0000      0.0000   1
hk_337            log  factor    1.286996      1.0000000e-05  2.0100000e+01     hk      1.0000      0.0000   1
hk_338            log  factor    1.553053      1.0000000e-05  2.0100000e+01     hk      1.0000      0.0000   1
hk_339            log  factor    1.629178      1.0000000e-05  2.0100000e+01     hk      1.0000      0.0000   1
hk_340            log  factor    1.669053      1.0000000e-05  2.0100000e+01     hk      1.0000      0.0000   1
hk_341            log  factor    1.155004      1.0000000e-05  2.0100000e+01     hk      1.0000      0.0000   1
hk_342            log  factor    1.363396      1.0000000e-05  2.0100000e+01     hk      1.0000      0.0000   1
hk_343            log  factor   2.2044930E-02  1.0000000e-05  2.0100000e+01     hk      1.0000      0.0000   1
hk_344            log  factor   2.4421660E-02  1.0000000e-05  2.0100000e+01     hk      1.0000      0.0000   1
hk_345            log  factor   3.5480455E-02  1.0000000e-05  2.0100000e+01     hk      1.0000      0.0000   1
hk_346            log  factor    1.094255      1.0000000e-05  2.0100000e+01     hk      1.0000      0.0000   1
hk_347            log  factor    1.284362      1.0000000e-05  2.0100000e+01     hk      1.0000      0.0000   1
hk_348            log  factor    1.005860      1.0000000e-05  2.0100000e+01     hk      1.0000      0.0000   1
hk_349            log  factor    1.509601      1.0000000e-05  2.0100000e+01     hk      1.0000      0.0000   1
hk_350            log  factor    1.422520      1.0000000e-05  2.0100000e+01     hk      1.0000      0.0000   1
hk_351            log  factor    1.620677      1.0000000e-05  2.0100000e+01     hk      1.0000      0.0000   1
hk_352            log  factor    1.626329      1.0000000e-05  2.0100000e+01     hk      1.0000      0.0000   1
hk_353            log  factor    1.557615      1.0000000e-05  2.0100000e+01     hk      1.0000      0.0000   1
hk_354            log  factor    1.646822      1.0000000e-05  2.0100000e+01     hk      1.0000      0.0000   1
hk_355            log  factor    1.497542      1.0000000e-05  2.0100000e+01     hk      1.0000      0.0000   1
hk_356            log  factor    1.530379      1.0000000e-05  2.0100000e+01     hk      1.0000      0.0000   1
hk_357            log  factor    1.453947      1.0000000e-05  2.0100000e+01     hk      1.0000      0.0000   1
hk_358            log  factor    1.567994      1.0000000e-05  2.0100000e+01     hk      1.0000      0.0000   1
hk_359            log  factor    1.409403      1.0000000e-05  2.0100000e+01     hk      1.0000      0.0000   1
hk_360            log  factor    1.324201      1.0000000e-05  2.0100000e+01     hk      1.0000      0.0000   1
hk_361            log  factor    1.225445      1.0000000e-05  2.0100000e+01     hk      1.0000      0.0000   1
hk_362            log  factor    1.048704      1.0000000e-05  2.0100000e+01     hk      1.0000      0.0000   1
hk_363            log  factor    1.193421      1.0000000e-05  2.0100000e+01     hk      1.0000      0.0000   1
hk_364            log  factor    1.267593      1.0000000e-05  2.0100000e+01     hk      1.0000      0.0000   1
hk_365            log  factor    1.173912      1.0000000e-05  2.0100000e+01     hk      1.0000      0.0000   1
hk_366            log  factor    1.326082      1.0000000e-05  2.0100000e+01     hk      1.0000      0.0000   1
hk_367            log  factor    1.500661      1.0000000e-05  2.0100000e+01     hk      1.0000      0.0000   1
hk_368            log  factor    1.614812      1.0000000e-05  2.0100000e+01     hk      1.0000      0.0000   1
hk_369            log  factor    1.504819      1.0000000e-05  2.0100000e+01     hk      1.0000      0.0000   1
hk_370            log  factor    1.656118      1.0000000e-05  2.0100000e+01     hk      1.0000      0.0000   1
hk_371            log  factor    1.576259      1.0000000e-05  2.0100000e+01     hk      1.0000      0.0000   1
hk_372            log  factor    1.444399      1.0000000e-05  2.0100000e+01     hk      1.0000      0.0000   1
hk_373            log  factor    1.686372      1.0000000e-05  2.0100000e+01     hk      1.0000      0.0000   1
hk_374            log  factor    1.277061      1.0000000e-05  2.0100000e+01     hk      1.0000      0.0000   1
hk_375            log  factor    1.232825      1.0000000e-05  2.0100000e+01     hk      1.0000      0.0000   1
hk_376            log  factor   0.9961712      1.0000000e-05  2.0100000e+01     hk      1.0000      0.0000   1
hk_377            log  factor    1.406174      1.0000000e-05  2.0100000e+01     hk      1.0000      0.0000   1
hk_378            log  factor    1.890280      1.0000000e-05  2.0100000e+01     hk      1.0000      0.0000   1
hk_379            log  factor    1.378454      1.0000000e-05  2.0100000e+01     hk      1.0000      0.0000   1
hk_380            log  factor    1.550085      1.0000000e-05  2.0100000e+01     hk      1.0000      0.0000   1
hk_381            log  factor    1.630719      1.0000000e-05  2.0100000e+01     hk      1.0000      0.0000   1
hk_382            log  factor    1.701912      1.0000000e-05  2.0100000e+01     hk      1.0000      0.0000   1
hk_383            log  factor    1.199207      1.0000000e-05  2.0100000e+01     hk      1.0000      0.0000   1
hk_384            log  factor    1.155179      1.0000000e-05  2.0100000e+01     hk      1.0000      0.0000   1
hk_385            log  factor    1.231870      1.0000000e-05  2.0100000e+01     hk      1.0000      0.0000   1