pcf
* control data
restart regularisation
   4284  13001      6    9555     12
    6     2 single point   1   0   0
  5.0  -3.0   0.3  0.03    10
 13.0  13.0 0.001  0
  0.1
    0  0.01     3     3  0.01     3
    1     1     1
* singular value decomposition
         1
      4000     5E-07
         0
* parameter groups
HK     relative 0.01  0.0  switch  2.0 parabolic
ANIZ   relative 0.01  0.0  switch  2.0 parabolic
HTR    relative 0.01  0.0  switch  2.0 parabolic
HTS    relative 0.01  0.0  switch  2.0 parabolic
ALFA   relative 0.01  0.0  switch  2.0 parabolic
THET   relative 0.01  0.0  switch  2.0 parabolic
* parameter data
hk_001            log  factor   7.6149267E-03  1.0000000e-05  2.0100000e+01     hk      1.0000      0.0000   1
hk_002            log  factor   7.0360183E-03  1.0000000e-05  2.0100000e+01     hk      1.0000      0.0000   1
hk_003            log  factor   7.5362000E-03  1.0000000e-05  2.0100000e+01     hk      1.0000      0.0000   1
hk_004            log  factor   8.8823187E-03  1.0000000e-05  2.0100000e+01     hk      1.0000      0.0000   1
hk_005            log  factor   9.3086877E-03  1.0000000e-05  2.0100000e+01     hk      1.0000      0.0000   1
hk_006            log  factor   8.2878481E-03  1.0000000e-05  2.0100000e+01     hk      1.0000      0.0000   1
hk_007            log  factor   7.9253394E-03  1.0000000e-05  2.0100000e+01     hk      1.0000      0.0000   1
hk_008            log  factor   5.9242767E-03  1.0000000e-05  2.0100000e+01     hk      1.0000      0.0000   1
hk_009            log  factor   4.7817332E-03  1.0000000e-05  2.0100000e+01     hk      1.0000      0.0000   1
hk_010            log  factor   5.6799940E-03  1.0000000e-05  2.0100000e+01     hk      1.0000      0.0000   1
hk_011            log  factor   6.5457328E-03  1.0000000e-05  2.0100000e+01     hk      1.0000      0.0000   1
hk_012          fixed  factor    999999.0      0.0000000e+00       99999999     hk      1.0000      0.0000   1
hk_013          fixed  factor    999999.0      0.0000000e+00       99999999     hk      1.0000      0.0000   1
hk_014          fixed  factor    999999.0      0.0000000e+00       99999999     hk      1.0000      0.0000   1
hk_015          fixed  factor    999999.0      0.0000000e+00       99999999     hk      1.0000      0.0000   1
hk_016          fixed  factor    999999.0      0.0000000e+00       99999999     hk      1.0000      0.0000   1
hk_017          fixed  factor    999999.0      0.0000000e+00       99999999     hk      1.0000      0.0000   1
hk_018          fixed  factor    999999.0      0.0000000e+00       99999999     hk      1.0000      0.0000   1
hk_019          fixed  factor    999999.0      0.0000000e+00       99999999     hk      1.0000      0.0000   1
hk_020          fixed  factor    999999.0      0.0000000e+00       99999999     hk      1.0000      0.0000   1
hk_021            log  factor   8.1280048E-03  1.0000000e-05  2.0100000e+01     hk      1.0000      0.0000   1
hk_022            log  factor   7.6299023E-03  1.0000000e-05  2.0100000e+01     hk      1.0000      0.0000   1
hk_023            log  factor   8.5057221E-03  1.0000000e-05  2.0100000e+01     hk      1.0000      0.0000   1
hk_024            log  factor   9.3594142E-03  1.0000000e-05  2.0100000e+01     hk      1.0000      0.0000   1
hk_025            log  factor   7.6443755E-03  1.0000000e-05  2.0100000e+01     hk      1.0000      0.0000   1
hk_026            log  factor   9.1838923E-03  1.0000000e-05  2.0100000e+01     hk      1.0000      0.0000   1
hk_027            log  factor   8.3373044E-03  1.0000000e-05  2.0100000e+01     hk      1.0000      0.0000   1
hk_028            log  factor   8.3259312E-03  1.0000000e-05  2.0100000e+01     hk      1.0000      0.0000   1
hk_029            log  factor   8.4627381E-03  1.0000000e-05  2.0100000e+01     hk      1.0000      0.0000   1
hk_030            log  factor   7.1938679E-03  1.0000000e-05  2.0100000e+01     hk      1.0000      0.0000   1
hk_031            log  factor   5.9746716E-03  1.0000000e-05  2.0100000e+01     hk      1.0000      0.0000   1
hk_032            log  factor   7.1873864E-03  1.0000000e-05  2.0100000e+01     hk      1.0000      0.0000   1
hk_033            log  factor   8.0577859E-03  1.0000000e-05  2.0100000e+01     hk      1.0000      0.0000   1
hk_034          fixed  factor    999999.0      0.0000000e+00       99999999     hk      1.0000      0.0000   1
hk_035            log  factor   7.9570159E-03  1.0000000e-05  2.0100000e+01     hk      1.0000      0.0000   1
hk_036            log  factor   8.0914435E-03  1.0000000e-05  2.0100000e+01     hk      1.0000      0.0000   1
hk_037            log  factor   7.7460775E-03  1.0000000e-05  2.0100000e+01     hk      1.0000      0.0000   1
hk_038            log  factor   8.8608094E-03  1.0000000e-05  2.0100000e+01     hk      1.0000      0.0000   1
hk_039            log  factor   1.2276958E-02  1.0000000e-05  2.0100000e+01     hk      1.0000      0.0000   1
hk_040            log  factor   8.9691082E-03  1.0000000e-05  2.0100000e+01     hk      1.0000      0.0000   1
hk_041            log  factor   8.0569796E-03  1.0000000e-05  2.0100000e+01     hk      1.0000      0.0000   1
hk_042            log  factor   8.7691455E-03  1.0000000e-05  2.0100000e+01     hk      1.0000      0.0000   1
hk_043            log  factor   6.4546323E-03  1.0000000e-05  2.0100000e+01     hk      1.0000      0.0000   1
hk_044            log  factor   1.3221191E-02  1.0000000e-05  2.0100000e+01     hk      1.0000      0.0000   1
hk_045            log  factor   6.1864581E-03  1.0000000e-05  2.0100000e+01     hk      1.0000      0.0000   1
hk_046            log  factor   7.4899019E-03  1.0000000e-05  2.0100000e+01     hk      1.0000      0.0000   1
hk_047          fixed  factor    999999.0      0.0000000e+00       99999999     hk      1.0000      0.0000   1
hk_048          fixed  factor    999999.0      0.0000000e+00       99999999     hk      1.0000      0.0000   1
hk_049          fixed  factor    999999.0      0.0000000e+00       99999999     hk      1.0000      0.0000   1
hk_050          fixed  factor    999999.0      0.0000000e+00       99999999     hk      1.0000      0.0000   1
hk_051          fixed  factor    999999.0      0.0000000e+00       99999999     hk      1.0000      0.0000   1
hk_052          fixed  factor    999999.0      0.0000000e+00       99999999     hk      1.0000      0.0000   1
hk_053          fixed  factor    999999.0      0.0000000e+00       99999999     hk      1.0000      0.0000   1
hk_054            log  factor   7.4186798E-03  1.0000000e-05  2.0100000e+01     hk      1.0000      0.0000   1
hk_055            log  factor   1.0393161E-02  1.0000000e-05  2.0100000e+01     hk      1.0000      0.0000   1
hk_056            log  factor   7.5390982E-03  1.0000000e-05  2.0100000e+01     hk      1.0000      0.0000   1
hk_057            log  factor   5.8014829E-03  1.0000000e-05  2.0100000e+01     hk      1.0000      0.0000   1
hk_058            log  factor   7.3101050E-03  1.0000000e-05  2.0100000e+01     hk      1.0000      0.0000   1
hk_059            log  factor   7.6751841E-03  1.0000000e-05  2.0100000e+01     hk      1.0000      0.0000   1
hk_060            log  factor   7.2612433E-03  1.0000000e-05  2.0100000e+01     hk      1.0000      0.0000   1
hk_061            log  factor   8.4546369E-03  1.0000000e-05  2.0100000e+01     hk      1.0000      0.0000   1
hk_062            log  factor   8.0373635E-03  1.0000000e-05  2.0100000e+01     hk      1.0000      0.0000   1
hk_063            log  factor   8.6289034E-03  1.0000000e-05  2.0100000e+01     hk      1.0000      0.0000   1
hk_064            log  factor   8.1311703E-03  1.0000000e-05  2.0100000e+01     hk      1.0000      0.0000   1
hk_065            log  factor   7.8426426E-03  1.0000000e-05  2.0100000e+01     hk      1.0000      0.0000   1
hk_066            log  factor   7.1486167E-03  1.0000000e-05  2.0100000e+01     hk      1.0000      0.0000   1
hk_067            log  factor   9.0969145E-03  1.0000000e-05  2.0100000e+01     hk      1.0000      0.0000   1
hk_068          fixed  factor    999999.0      0.0000000e+00       99999999     hk      1.0000      0.0000   1
hk_069            log  factor   7.3910494E-03  1.0000000e-05  2.0100000e+01     hk      1.0000      0.0000   1
hk_070            log  factor   8.0294848E-03  1.0000000e-05  2.0100000e+01     hk      1.0000      0.0000   1
hk_071            log  factor   7.4094873E-03  1.0000000e-05  2.0100000e+01     hk      1.0000      0.0000   1
hk_072            log  factor   6.9810205E-03  1.0000000e-05  2.0100000e+01     hk      1.0000      0.0000   1
hk_073            log  factor   7.7981381E-03  1.0000000e-05  2.0100000e+01     hk      1.0000      0.0000   1
hk_074            log  factor   7.7111071E-03  1.0000000e-05  2.0100000e+01     hk      1.0000      0.0000   1
hk_075            log  factor   8.9569321E-03  1.0000000e-05  2.0100000e+01     hk      1.0000      0.0000   1
hk_076            log  factor   8.8248898E-03  1.0000000e-05  2.0100000e+01     hk      1.0000      0.0000   1
hk_077            log  factor   6.8430323E-03  1.0000000e-05  2.0100000e+01     hk      1.0000      0.0000   1
hk_078            log  factor   8.5535596E-03  1.0000000e-05  2.0100000e+01     hk      1.0000      0.0000   1
hk_079            log  factor   8.0375708E-03  1.0000000e-05  2.0100000e+01     hk      1.0000      0.0000   1
hk_080            log  factor   8.4576424E-03  1.0000000e-05  2.0100000e+01     hk      1.0000      0.0000   1
hk_081          fixed  factor    999999.0      0.0000000e+00       99999999     hk      1.0000      0.0000   1
hk_082          fixed  factor    999999.0      0.0000000e+00       99999999     hk      1.0000      0.0000   1
hk_083          fixed  factor    999999.0      0.0000000e+00       99999999     hk      1.0000      0.0000   1
hk_084          fixed  factor    999999.0      0.0000000e+00       99999999     hk      1.0000      0.0000   1
hk_085          fixed  factor    999999.0      0.0000000e+00       99999999     hk      1.0000      0.0000   1
hk_086          fixed  factor    999999.0      0.0000000e+00       99999999     hk      1.0000      0.0000   1
hk_087          fixed  factor    999999.0      0.0000000e+00       99999999     hk      1.0000      0.0000   1
hk_088            log  factor   8.4906142E-03  1.0000000e-05  2.0100000e+01     hk      1.0000      0.0000   1
hk_089            log  factor   8.0125096E-03  1.0000000e-05  2.0100000e+01     hk      1.0000      0.0000   1
hk_090            log  factor   7.9063749E-03  1.0000000e-05  2.0100000e+01     hk      1.0000      0.0000   1
hk_091            log  factor   6.3171507E-03  1.0000000e-05  2.0100000e+01     hk      1.0000      0.0000   1
hk_092            log  factor   8.0854888E-03  1.0000000e-05  2.0100000e+01     hk      1.0000      0.0000   1
hk_093            log  factor   6.9113898E-03  1.0000000e-05  2.0100000e+01     hk      1.0000      0.0000   1
hk_094            log  factor   7.1195146E-03  1.0000000e-05  2.0100000e+01     hk      1.0000      0.0000   1
hk_095            log  factor   8.0366653E-03  1.0000000e-05  2.0100000e+01     hk      1.0000      0.0000   1
hk_096            log  factor   6.8997678E-03  1.0000000e-05  2.0100000e+01     hk      1.0000      0.0000   1
hk_097            log  factor   7.6387556E-03  1.0000000e-05  2.0100000e+01     hk      1.0000      0.0000   1
hk_098            log  factor   7.1442972E-03  1.0000000e-05  2.0100000e+01     hk      1.0000      0.0000   1
hk_099            log  factor   7.1239085E-03  1.0000000e-05  2.0100000e+01     hk      1.0000      0.0000   1
hk_100            log  factor   7.1624181E-03  1.0000000e-05  2.0100000e+01     hk      1.0000      0.0000   1
hk_101            log  factor   8.5501814E-03  1.0000000e-05  2.0100000e+01     hk      1.0000      0.0000   1
hk_102          fixed  factor    999999.0      0.0000000e+00       99999999     hk      1.0000      0.0000   1
hk_103            log  factor   7.4968748E-03  1.0000000e-05  2.0100000e+01     hk      1.0000      0.0000   1
hk_104            log  factor   6.9657374E-03  1.0000000e-05  2.0100000e+01     hk      1.0000      0.0000   1
hk_105            log  factor   9.2020455E-03  1.0000000e-05  2.0100000e+01     hk      1.0000      0.0000   1
hk_106            log  factor   6.9282414E-03  1.0000000e-05  2.0100000e+01     hk      1.0000      0.0000   1
hk_107            log  factor   1.2221553E-02  1.0000000e-05  2.0100000e+01     hk      1.0000      0.0000   1
hk_108            log  factor   9.5427236E-03  1.0000000e-05  2.0100000e+01     hk      1.0000      0.0000   1
hk_109            log  factor   1.0423174E-02  1.0000000e-05  2.0100000e+01     hk      1.0000      0.0000   1
hk_110            log  factor   9.4492127E-03  1.0000000e-05  2.0100000e+01     hk      1.0000      0.0000   1
hk_111            log  factor   7.0867154E-03  1.0000000e-05  2.0100000e+01     hk      1.0000      0.0000   1
hk_112            log  factor   1.3826797E-02  1.0000000e-05  2.0100000e+01     hk      1.0000      0.0000   1
hk_113            log  factor   9.7362807E-03  1.0000000e-05  2.0100000e+01     hk      1.0000      0.0000   1
hk_114            log  factor   6.0674309E-03  1.0000000e-05  2.0100000e+01     hk      1.0000      0.0000   1
hk_115            log  factor   1.5801615E-02  1.0000000e-05  2.0100000e+01     hk      1.0000      0.0000   1
hk_116            log  factor   3.6286406E-02  1.0000000e-05  2.0100000e+01     hk      1.0000      0.0000   1
hk_117          fixed  factor    999999.0      0.0000000e+00       99999999     hk      1.0000      0.0000   1
hk_118          fixed  factor    999999.0      0.0000000e+00       99999999     hk      1.0000      0.0000   1
hk_119          fixed  factor    999999.0      0.0000000e+00       99999999     hk      1.0000      0.0000   1
hk_120          fixed  factor    999999.0      0.0000000e+00       99999999     hk      1.0000      0.0000   1
hk_121          fixed  factor    999999.0      0.0000000e+00       99999999     hk      1.0000      0.0000   1
hk_122            log  factor   6.2476939E-03  1.0000000e-05  2.0100000e+01     hk      1.0000      0.0000   1
hk_123            log  factor   8.3034978E-03  1.0000000e-05  2.0100000e+01     hk      1.0000      0.0000   1
hk_124            log  factor   6.6229717E-03  1.0000000e-05  2.0100000e+01     hk      1.0000      0.0000   1
hk_125            log  factor   6.8220786E-03  1.0000000e-05  2.0100000e+01     hk      1.0000      0.0000   1
hk_126            log  factor   8.7669914E-03  1.0000000e-05  2.0100000e+01     hk      1.0000      0.0000   1
hk_127            log  factor   8.1355296E-03  1.0000000e-05  2.0100000e+01     hk      1.0000      0.0000   1
hk_128            log  factor   6.1522939E-03  1.0000000e-05  2.0100000e+01     hk      1.0000      0.0000   1
hk_129            log  factor   8.2926893E-03  1.0000000e-05  2.0100000e+01     hk      1.0000      0.0000   1
hk_130            log  factor   7.0659108E-03  1.0000000e-05  2.0100000e+01     hk      1.0000      0.0000   1
hk_131            log  factor   6.6862717E-03  1.0000000e-05  2.0100000e+01     hk      1.0000      0.0000   1
hk_132            log  factor   7.4382615E-03  1.0000000e-05  2.0100000e+01     hk      1.0000      0.0000   1
hk_133            log  factor   7.0689000E-03  1.0000000e-05  2.0100000e+01     hk      1.0000      0.0000   1
hk_134            log  factor   7.3297715E-03  1.0000000e-05  2.0100000e+01     hk      1.0000      0.0000   1
hk_135            log  factor   9.0222600E-03  1.0000000e-05  2.0100000e+01     hk      1.0000      0.0000   1
hk_136          fixed  factor    999999.0      0.0000000e+00       99999999     hk      1.0000      0.0000   1
hk_137            log  factor   8.4155229E-03  1.0000000e-05  2.0100000e+01     hk      1.0000      0.0000   1
hk_138            log  factor   6.9337300E-03  1.0000000e-05  2.0100000e+01     hk      1.0000      0.0000   1
hk_139            log  factor   9.3152280E-03  1.0000000e-05  2.0100000e+01     hk      1.0000      0.0000   1
hk_140            log  factor   7.9915212E-03  1.0000000e-05  2.0100000e+01     hk      1.0000      0.0000   1
hk_141            log  factor   7.7277450E-03  1.0000000e-05  2.0100000e+01     hk      1.0000      0.0000   1
hk_142            log  factor   7.6528169E-03  1.0000000e-05  2.0100000e+01     hk      1.0000      0.0000   1
hk_143            log  factor   7.4809736E-03  1.0000000e-05  2.0100000e+01     hk      1.0000      0.0000   1
hk_144            log  factor   9.6146803E-03  1.0000000e-05  2.0100000e+01     hk      1.0000      0.0000   1
hk_145            log  factor   7.5553816E-03  1.0000000e-05  2.0100000e+01     hk      1.0000      0.0000   1
hk_146            log  factor   1.5260024E-02  1.0000000e-05  2.0100000e+01     hk      1.0000      0.0000   1
hk_147            log  factor   8.9263673E-03  1.0000000e-05  2.0100000e+01     hk      1.0000      0.0000   1
hk_148            log  factor   6.2339199E-03  1.0000000e-05  2.0100000e+01     hk      1.0000      0.0000   1
hk_149            log  factor   2.1572068E-02  1.0000000e-05  2.0100000e+01     hk      1.0000      0.0000   1
hk_150            log  factor   6.5443534E-02  1.0000000e-05  2.0100000e+01     hk      1.0000      0.0000   1
hk_151          fixed  factor    999999.0      0.0000000e+00       99999999     hk      1.0000      0.0000   1
hk_152          fixed  factor    999999.0      0.0000000e+00       99999999     hk      1.0000      0.0000   1
hk_153          fixed  factor    999999.0      0.0000000e+00       99999999     hk      1.0000      0.0000   1
hk_154          fixed  factor    999999.0      0.0000000e+00       99999999     hk      1.0000      0.0000   1
hk_155          fixed  factor    999999.0      0.0000000e+00       99999999     hk      1.0000      0.0000   1
hk_156            log  factor   6.3622285E-03  1.0000000e-05  2.0100000e+01     hk      1.0000      0.0000   1
hk_157            log  factor   6.9087393E-03  1.0000000e-05  2.0100000e+01     hk      1.0000      0.0000   1
hk_158            log  factor   7.0198342E-03  1.0000000e-05  2.0100000e+01     hk      1.0000      0.0000   1
hk_159            log  factor   5.5293687E-03  1.0000000e-05  2.0100000e+01     hk      1.0000      0.0000   1
hk_160            log  factor   9.7023743E-03  1.0000000e-05  2.0100000e+01     hk      1.0000      0.0000   1
hk_161            log  factor   7.6265176E-03  1.0000000e-05  2.0100000e+01     hk      1.0000      0.0000   1
hk_162            log  factor   6.4196645E-03  1.0000000e-05  2.0100000e+01     hk      1.0000      0.0000   1
hk_163            log  factor   9.2393693E-03  1.0000000e-05  2.0100000e+01     hk      1.0000      0.0000   1
hk_164            log  factor   6.9397824E-03  1.0000000e-05  2.0100000e+01     hk      1.0000      0.0000   1
hk_165            log  factor   6.9542371E-03  1.0000000e-05  2.0100000e+01     hk      1.0000      0.0000   1
hk_166            log  factor   7.4344760E-03  1.0000000e-05  2.0100000e+01     hk      1.0000      0.0000   1
hk_167            log  factor   7.8844909E-03  1.0000000e-05  2.0100000e+01     hk      1.0000      0.0000   1
hk_168            log  factor   6.9804252E-03  1.0000000e-05  2.0100000e+01     hk      1.0000      0.0000   1
hk_169            log  factor   7.6185958E-03  1.0000000e-05  2.0100000e+01     hk      1.0000      0.0000   1
hk_170          fixed  factor    999999.0      0.0000000e+00       99999999     hk      1.0000      0.0000   1
hk_171            log  factor   7.2986109E-03  1.0000000e-05  2.0100000e+01     hk      1.0000      0.0000   1
hk_172            log  factor   6.6797812E-03  1.0000000e-05  2.0100000e+01     hk      1.0000      0.0000   1
hk_173            log  factor   7.8540429E-03  1.0000000e-05  2.0100000e+01     hk      1.0000      0.0000   1
hk_174            log  factor   8.3514012E-03  1.0000000e-05  2.0100000e+01     hk      1.0000      0.0000   1
hk_175            log  factor   8.5206773E-03  1.0000000e-05  2.0100000e+01     hk      1.0000      0.0000   1
hk_176            log  factor   8.4060063E-03  1.0000000e-05  2.0100000e+01     hk      1.0000      0.0000   1
hk_177            log  factor   8.5389841E-03  1.0000000e-05  2.0100000e+01     hk      1.0000      0.0000   1
hk_178            log  factor   1.2386689E-02  1.0000000e-05  2.0100000e+01     hk      1.0000      0.0000   1
hk_179            log  factor   9.4146808E-03  1.0000000e-05  2.0100000e+01     hk      1.0000      0.0000   1
hk_180            log  factor   2.0345403E-02  1.0000000e-05  2.0100000e+01     hk      1.0000      0.0000   1
hk_181            log  factor   1.2425507E-02  1.0000000e-05  2.0100000e+01     hk      1.0000      0.0000   1
hk_182            log  factor   5.5301496E-03  1.0000000e-05  2.0100000e+01     hk      1.0000      0.0000   1
hk_183            log  factor   1.0893150E-02  1.0000000e-05  2.0100000e+01     hk      1.0000      0.0000   1
hk_184            log  factor   1.6184510E-02  1.0000000e-05  2.0100000e+01     hk      1.0000      0.0000   1
hk_185            log  factor   9.6393302E-04  1.0000000e-05  2.0100000e+01     hk      1.0000      0.0000   1
hk_186          fixed  factor    999999.0      0.0000000e+00       99999999     hk      1.0000      0.0000   1
hk_187          fixed  factor    999999.0      0.0000000e+00       99999999     hk      1.0000      0.0000   1
hk_188          fixed  factor    999999.0      0.0000000e+00       99999999     hk      1.0000      0.0000   1
hk_189            log  factor   5.5142975E-03  1.0000000e-05  2.0100000e+01     hk      1.0000      0.0000   1
hk_190            log  factor   7.5123007E-03  1.0000000e-05  2.0100000e+01     hk      1.0000      0.0000   1
hk_191            log  factor   7.9173692E-03  1.0000000e-05  2.0100000e+01     hk      1.0000      0.0000   1
hk_192            log  factor   6.5630652E-03  1.0000000e-05  2.0100000e+01     hk      1.0000      0.0000   1
hk_193            log  factor   8.1638203E-03  1.0000000e-05  2.0100000e+01     hk      1.0000      0.0000   1
hk_194            log  factor   7.3160697E-03  1.0000000e-05  2.0100000e+01     hk      1.0000      0.0000   1
hk_195            log  factor   7.8695776E-03  1.0000000e-05  2.0100000e+01     hk      1.0000      0.0000   1
hk_196            log  factor   7.0586303E-03  1.0000000e-05  2.0100000e+01     hk      1.0000      0.0000   1
hk_197            log  factor   7.5368782E-03  1.0000000e-05  2.0100000e+01     hk      1.0000      0.0000   1
hk_198            log  factor   7.6932022E-03  1.0000000e-05  2.0100000e+01     hk      1.0000      0.0000   1
hk_199            log  factor   5.4347135E-03  1.0000000e-05  2.0100000e+01     hk      1.0000      0.0000   1
hk_200            log  factor   7.0266550E-03  1.0000000e-05  2.0100000e+01     hk      1.0000      0.0000   1
hk_201            log  factor   7.9856701E-03  1.0000000e-05  2.0100000e+01     hk      1.0000      0.0000   1
hk_202            log  factor   7.6208089E-03  1.0000000e-05  2.0100000e+01     hk      1.0000      0.0000   1
hk_203            log  factor   7.7687404E-03  1.0000000e-05  2.0100000e+01     hk      1.0000      0.0000   1
hk_204          fixed  factor    999999.0      0.0000000e+00       99999999     hk      1.0000      0.0000   1
hk_205            log  factor   7.4210306E-03  1.0000000e-05  2.0100000e+01     hk      1.0000      0.0000   1
hk_206            log  factor   7.7344053E-03  1.0000000e-05  2.0100000e+01     hk      1.0000      0.0000   1
hk_207            log  factor   7.8979457E-03  1.0000000e-05  2.0100000e+01     hk      1.0000      0.0000   1
hk_208            log  factor   9.2844022E-03  1.0000000e-05  2.0100000e+01     hk      1.0000      0.0000   1
hk_209            log  factor   9.5103995E-03  1.0000000e-05  2.0100000e+01     hk      1.0000      0.0000   1
hk_210            log  factor   7.9604536E-03  1.0000000e-05  2.0100000e+01     hk      1.0000      0.0000   1
hk_211            log  factor   8.9522052E-03  1.0000000e-05  2.0100000e+01     hk      1.0000      0.0000   1
hk_212            log  factor   1.1946535E-02  1.0000000e-05  2.0100000e+01     hk      1.0000      0.0000   1
hk_213            log  factor   1.6613525E-02  1.0000000e-05  2.0100000e+01     hk      1.0000      0.0000   1
hk_214            log  factor   1.9014562E-02  1.0000000e-05  2.0100000e+01     hk      1.0000      0.0000   1
hk_215            log  factor   8.0845706E-03  1.0000000e-05  2.0100000e+01     hk      1.0000      0.0000   1
hk_216            log  factor   8.5628401E-03  1.0000000e-05  2.0100000e+01     hk      1.0000      0.0000   1
hk_217            log  factor   3.6562128E-02  1.0000000e-05  2.0100000e+01     hk      1.0000      0.0000   1
hk_218            log  factor   5.3681103E-03  1.0000000e-05  2.0100000e+01     hk      1.0000      0.0000   1
hk_219            log  factor   3.8678070E-03  1.0000000e-05  2.0100000e+01     hk      1.0000      0.0000   1
hk_220            log  factor    1.735144      1.0000000e-05  2.0100000e+01     hk      1.0000      0.0000   1
hk_221            log  factor    1.952402      1.0000000e-05  2.0100000e+01     hk      1.0000      0.0000   1
hk_222            log  factor   0.1057809      1.0000000e-05  2.0100000e+01     hk      1.0000      0.0000   1
hk_223            log  factor   2.9324286E-03  1.0000000e-05  2.0100000e+01     hk      1.0000      0.0000   1
hk_224            log  factor   6.1833138E-03  1.0000000e-05  2.0100000e+01     hk      1.0000      0.0000   1
hk_225            log  factor   6.9782213E-03  1.0000000e-05  2.0100000e+01     hk      1.0000      0.0000   1
hk_226            log  factor   7.4248729E-03  1.0000000e-05  2.0100000e+01     hk      1.0000      0.0000   1
hk_227            log  factor   7.3103141E-03  1.0000000e-05  2.0100000e+01     hk      1.0000      0.0000   1
hk_228            log  factor   9.6855092E-03  1.0000000e-05  2.0100000e+01     hk      1.0000      0.0000   1
hk_229            log  factor   7.1885653E-03  1.0000000e-05  2.0100000e+01     hk      1.0000      0.0000   1
hk_230            log  factor   8.8962748E-03  1.0000000e-05  2.0100000e+01     hk      1.0000      0.0000   1
hk_231            log  factor   6.8936998E-03  1.0000000e-05  2.0100000e+01     hk      1.0000      0.0000   1
hk_232            log  factor   7.6447234E-03  1.0000000e-05  2.0100000e+01     hk      1.0000      0.0000   1
hk_233            log  factor   6.4174460E-03  1.0000000e-05  2.0100000e+01     hk      1.0000      0.0000   1
hk_234            log  factor   5.8497046E-03  1.0000000e-05  2.0100000e+01     hk      1.0000      0.0000   1
hk_235            log  factor   7.0135229E-03  1.0000000e-05  2.0100000e+01     hk      1.0000      0.0000   1
hk_236            log  factor   7.0116877E-03  1.0000000e-05  2.0100000e+01     hk      1.0000      0.0000   1
hk_237            log  factor   7.9018436E-03  1.0000000e-05  2.0100000e+01     hk      1.0000      0.0000   1
hk_238          fixed  factor    999999.0      0.0000000e+00       99999999     hk      1.0000      0.0000   1
hk_239            log  factor   7.3868782E-03  1.0000000e-05  2.0100000e+01     hk      1.0000      0.0000   1
hk_240            log  factor   7.3705486E-03  1.0000000e-05  2.0100000e+01     hk      1.0000      0.0000   1
hk_241            log  factor   9.4313130E-03  1.0000000e-05  2.0100000e+01     hk      1.0000      0.0000   1
hk_242            log  factor   6.5517243E-03  1.0000000e-05  2.0100000e+01     hk      1.0000      0.0000   1
hk_243            log  factor   8.1525557E-03  1.0000000e-05  2.0100000e+01     hk      1.0000      0.0000   1
hk_244            log  factor   7.5176869E-03  1.0000000e-05  2.0100000e+01     hk      1.0000      0.0000   1
hk_245            log  factor   7.9075809E-03  1.0000000e-05  2.0100000e+01     hk      1.0000      0.0000   1
hk_246            log  factor   1.4019913E-02  1.0000000e-05  2.0100000e+01     hk      1.0000      0.0000   1
hk_247            log  factor   2.5446257E-02  1.0000000e-05  2.0100000e+01     hk      1.0000      0.0000   1
hk_248            log  factor   2.2227294E-02  1.0000000e-05  2.0100000e+01     hk      1.0000      0.0000   1
hk_249            log  factor   8.7548682E-03  1.0000000e-05  2.0100000e+01     hk      1.0000      0.0000   1
hk_250            log  factor   9.3064278E-03  1.0000000e-05  2.0100000e+01     hk      1.0000      0.0000   1
hk_251            log  factor   7.6991444E-03  1.0000000e-05  2.0100000e+01     hk      1.0000      0.0000   1
hk_252            log  factor   5.4642784E-03  1.0000000e-05  2.0100000e+01     hk      1.0000      0.0000   1
hk_253            log  factor   6.8266386E-03  1.0000000e-05  2.0100000e+01     hk      1.0000      0.0000   1
hk_254            log  factor    1.641197      1.0000000e-05  2.0100000e+01     hk      1.0000      0.0000   1
hk_255            log  factor   3.9273047E-04  1.0000000e-05  2.0100000e+01     hk      1.0000      0.0000   1
hk_256            log  factor   1.4362269E-02  1.0000000e-05  2.0100000e+01     hk      1.0000      0.0000   1
hk_257            log  factor   3.3815382E-03  1.0000000e-05  2.0100000e+01     hk      1.0000      0.0000   1
hk_258            log  factor   6.9602340E-03  1.0000000e-05  2.0100000e+01     hk      1.0000      0.0000   1
hk_259            log  factor   6.7158082E-03  1.0000000e-05  2.0100000e+01     hk      1.0000      0.0000   1
hk_260            log  factor   9.1654244E-03  1.0000000e-05  2.0100000e+01     hk      1.0000      0.0000   1
hk_261            log  factor   7.5796323E-03  1.0000000e-05  2.0100000e+01     hk      1.0000      0.0000   1
hk_262            log  factor   6.0268082E-03  1.0000000e-05  2.0100000e+01     hk      1.0000      0.0000   1