pcf
* control data
restart estimation
16 3440 5 0 2
1  1  double  point  1  0  0
1.000000e+001  2.000000e+000  3.000000e-001  1.000000e-002  10
1.000000e+001  1.000000e+001  1.000000e-003
1.000000e-001 noaui
0  1.000000e-002  3  3  1.000000e-002  3 **** CONTROLS OPTIMIZATION: SEE PEST MANUAL ****
1  1  1
* parameter groups
Kh     relative   1.000000e-002  0.000000e+000  switch  2.000000e+000  parabolic
Base   relative   1.000000e-002  0.000000e+000  switch  2.000000e+000  parabolic
Khi    relative   1.000000e-002  0.000000e+000  switch  2.000000e+000  parabolic
Rch    relative   1.000000e-002  0.000000e+000  switch  2.000000e+000  parabolic
Res    relative   1.000000e-002  0.000000e+000  switch  2.000000e+000  parabolic
* parameter data
Conductivity	log   factor   .5	 .05	 5	Kh     1.0      0.0 1
Base________	none  factor  -4500	-45000	-450	Base   1.0      0.0 1
Kcopper1____	log   factor   4	 .4	 40	Khi    1.0      0.0 1
Kcopper3____	log   factor   .3	 .03	 3	Khi    1.0      0.0 1
Kmiller_____	log   factor   .6	 .06	 6	Khi    1.0      0.0 1
KshallowBRW_	log   factor   .3	 .03	 3	Khi    1.0      0.0 1
KShbedrockE_	log   factor   .3	 .03	 3	Khi    1.0      0.0 1
Rcopper1____	none  factor   .0035	 .00035	 .035	Rch    -1.0     0.0 1
Rcopper2____	none  factor   .0025	 .00025	 .025	Rch    -1.0     0.0 1
Rcopper3____	none  factor   .003	 .0003	 .03	Rch    -1.0     0.0 1
Rmiller_____	none  factor   .001	 .0001	 .01	Rch    -1.0     0.0 1
RshallowBRW_	none  factor   .0024	 .00024	 .024	Rch    -1.0     0.0 1
RShbedrockE_	none  factor   .0024	 .00024	 .024	Rch    -1.0     0.0 1
Cdrainage___	none  factor   10	 1	 100	Res    1.0      0.0 1
Cseepage____	none  factor   20	 2	 200	Res    1.0      0.0 1
Cstream_____	none  factor   .5	 .05	 5	Res    1.0      0.0 1
* observation groups
Head
Streamflow
* observation data
AS0054_longtrm 1511.14	1.000000 Head
BA0242_longtrm 1219.82	1.000000 Head
BA0241_longtrm 1219.99	1.000000 Head
AS0006_longtrm 1441.37	1.000000 Head
BA0124_longtrm 1087.51	1.000000 Head
BA0198_longtrm 1044.67	1.000000 Head
DS0223_QW 1095	1.000000 Head
BA0085_QW 1153	1.000000 Head
BA0189_QW 1167.15	1.000000 Head
BA0191_QW 1167.39	1.000000 Head
BA0188_QW 1167.04	1.000000 Head
BA0195_QW 1167.12	1.000000 Head
BA0045_QW 1075	1.000000 Head
BA0123_QW 1080.5	1.000000 Head
BA0095_QW 1312	1.000000 Head
BA0075_QW 1253	1.000000 Head
SW0023_QW 1389	1.000000 Head
BA0014_QW 916	1.000000 Head
SW0113_QW 1305	1.000000 Head
SW0112_QW 1320.63	1.000000 Head
BA0136_QW 924	1.000000 Head
BA0137_QW 1049	1.000000 Head
BA0097_QW 887	1.000000 Head
BA0043_QW 841	1.000000 Head
BA0139_QW 992	1.000000 Head
SW0080_QW 1401	1.000000 Head
BA0154_QW 795	1.000000 Head
BA0168_QW 1446	1.000000 Head
AS0044_QW 1423	1.000000 Head
SW0047_QW 1452	1.000000 Head
AS0067_QW 1384	1.000000 Head
AS0100_QW 765	1.000000 Head
AS0228_QW 760	1.000000 Head
AS0195_QW 808	1.000000 Head
AS0229_QW 760	1.000000 Head
AS0192_QW 761	1.000000 Head
AS0066_QW 1017	1.000000 Head
AS0029_QW 1240	1.000000 Head
AS0011_QW 1498	1.000000 Head
PR0027_QW 1528	1.000000 Head
AS0017_2 1216.39	1.000000 Head
AS0210_2 1003	1.000000 Head
Minersville 800	1.000000 Head
UL498_fair 769	1.000000 Head
DP993_fair 890	1.000000 Head
HV451_poor 763	1.000000 Head
TA621_fair 760	1.000000 Head
RF977_fair 1400	1.000000 Head
SE936_fair 1398	1.000000 Head
AZ941_fair 971	1.000000 Head
VD005_good 1327	1.000000 Head
QQ585_fair 655.9	1.000000 Head
NX578_good 986.9	1.000000 Head
HP539_good 992.8	1.000000 Head
MD757_fair 900.5	1.000000 Head
HY804_fair 1490	1.000000 Head
HI921_fair 832	1.000000 Head
OR960_fair 1135	1.000000 Head
QJ499_fair 1114	1.000000 Head
QN861_fair 965	1.000000 Head
SR689_fair 1137	1.000000 Head
VF332_fair 1396	1.000000 Head
AC590_fair 1332	1.000000 Head
LC740_fair 1000	1.000000 Head
UR504_poor 1110	1.000000 Head
WH426_fair 975	1.000000 Head
NO308_good 995	1.000000 Head
OR412_fair 1129	1.000000 Head
KP809_fair 979	1.000000 Head
SL542_fair 1692	1.000000 Head
GP250_fair 1369	1.000000 Head
OR209_fair 1543.5	1.000000 Head
CU608_fair 1529	1.000000 Head
SM886_fair 1440	1.000000 Head
SS568_poor 1524	1.000000 Head
NG185_fair 1393	1.000000 Head
GV530_fair 1446	1.000000 Head
RM894_fair 1034	1.000000 Head
RU038_fair 1118	1.000000 Head
AZ934_fair 1397	1.000000 Head
KL126_fair 1419	1.000000 Head
AA720_fair 1396	1.000000 Head
RH385_fair 1130	1.000000 Head
RR018_fair 1397	1.000000 Head
GP285_fair 1386.5	1.000000 Head
UH080_fair 1526	1.000000 Head
TF781_fair 1424	1.000000 Head
UR555_fair 1493	1.000000 Head
OU343_fair 1489	1.000000 Head
RF968_fair 1475	1.000000 Head
QP940_fair 1123	1.000000 Head
QS219_fair 1396	1.000000 Head
SW955_fair 1074	1.000000 Head
AJ956_poor 1391	1.000000 Head
LC954_fair 1393	1.000000 Head
LC398_fair 1395	1.000000 Head
LC399_fair 1396	1.000000 Head
LB014_fair 1394	1.000000 Head
LB011_fair 1407	1.000000 Head
QX643_fair 1394	1.000000 Head
NE788_fair 1414	1.000000 Head
DD033_fair 1130	1.000000 Head
VC544_fair 1127	1.000000 Head
TF791_fair 1123	1.000000 Head
AC575_fair 1006	1.000000 Head
UT469_fair 1046	1.000000 Head
GD149_poor 1158	1.000000 Head
CM822_good 994	1.000000 Head
RQ066_good 1384	1.000000 Head
MK372_fair 1394.5	1.000000 Head
BA095_poor 1525	1.000000 Head
QQ100_fair 1528	1.000000 Head
TO442_fair 1415	1.000000 Head
QJ580_fair 899	1.000000 Head
DO181_fair 1537	1.000000 Head
OU345_poor 1322	1.000000 Head
QY271_fair 1332	1.000000 Head
NN997_fair 1073	1.000000 Head
IC716_fair 1395	1.000000 Head
SN877_fair 1131	1.000000 Head
RL677_fair 1135	1.000000 Head
NS954_fair 1400	1.000000 Head
CY625_fair 1393	1.000000 Head
OJ409_fair 1393	1.000000 Head
SW207_fair 1394	1.000000 Head
GL506_fair 1133	1.000000 Head
DC855_fair 1142	1.000000 Head
NY159_fair 1693	1.000000 Head
HK421_good 1691	1.000000 Head
HV273_fair 1695	1.000000 Head
LE690_fair 1686	1.000000 Head
NR064_fair 1688	1.000000 Head
FK982_fair 1378	1.000000 Head
ON252_fair 1399	1.000000 Head
OR207_fair 1380	1.000000 Head
SS506_fair 1407	1.000000 Head
SW250_fair 1385	1.000000 Head
VK005_good 1368	1.000000 Head
TO457_good 1359	1.000000 Head
FQ141_fair 1385.6	1.000000 Head
FQ538_fair 1432	1.000000 Head
KN135_poor 1525	1.000000 Head
AZ948_fair 1417	1.000000 Head
NL893_fair 1272	1.000000 Head
LE659_poor 1355	1.000000 Head
FQ170_poor 1434	1.000000 Head
TF778_fair 795	1.000000 Head
GV520_fair 1290	1.000000 Head
QP967_poor 1391	1.000000 Head
SW204_fair 1128	1.000000 Head
UM408_fair 834	1.000000 Head
UV316_fair 1101	1.000000 Head
AH987_fair 1393	1.000000 Head
SC723_fair 1393	1.000000 Head
TF782_fair 1391	1.000000 Head
UA850_fair 1396	1.000000 Head
LC730_poor 1389	1.000000 Head
TF743_fair 1395	1.000000 Head
OJ405_fair 1405	1.000000 Head
LC744_fair 1392	1.000000 Head
CI212_fair 1394	1.000000 Head
LD820_fair 1394	1.000000 Head
UA812_fair 1414	1.000000 Head
GL249_fair 1391	1.000000 Head
LE377_fair 1394	1.000000 Head
HT941_fair 1385	1.000000 Head
LA725_fair 1130	1.000000 Head
CJ557_fair 805	1.000000 Head
TF780_fair 945	1.000000 Head
LD382_poor 1185	1.000000 Head
LE867_fair 835	1.000000 Head
MP493_fair 1120	1.000000 Head
GL509_fair 1112	1.000000 Head
WH621_poor 974	1.000000 Head
CA237_fair 1055	1.000000 Head
DU131_fair 1705	1.000000 Head
SK280_fair 1378	1.000000 Head
SK288_good 1388	1.000000 Head
TN335_good 1395	1.000000 Head
WN102_fair 1358	1.000000 Head
VF326_good 1392	1.000000 Head
TV158_fair 1518.5	1.000000 Head
NC394_fair 1353.4	1.000000 Head
EM693_fair 1547	1.000000 Head
SM887_fair 1454	1.000000 Head
WN065_fair 1432	1.000000 Head
NS967_fair 1420	1.000000 Head
OF250_fair 1536	1.000000 Head
MD777_fair 1072	1.000000 Head
RL645_fair 1135	1.000000 Head
TF542_fair 1106	1.000000 Head
MW905_fair 1400	1.000000 Head
ON230_poor 1388	1.000000 Head
NN969_fair 1402	1.000000 Head
KN690_fair 1393	1.000000 Head
ON209_poor 1128	1.000000 Head
GF866_fair 1127	1.000000 Head
HU922_fair 1127	1.000000 Head
NE779_poor 1134	1.000000 Head
OM477_fair 1128	1.000000 Head
OJ410_fair 1113	1.000000 Head
UR586_fair 1687	1.000000 Head
NI461_fair 1383	1.000000 Head
RL618_good 1384	1.000000 Head
RK273_good 1385	1.000000 Head
SH034_good 1374	1.000000 Head
TL014_good 1389	1.000000 Head
WG173_fair 1367	1.000000 Head
TZ159_good 1353	1.000000 Head
FI583_fair 1417.5	1.000000 Head
TW175_fair 1127.5	1.000000 Head
UF375_fair 771	1.000000 Head
MX678_fair 1567	1.000000 Head
UO439_fair 1583	1.000000 Head
AX798_fair 1526	1.000000 Head
SO705_fair 1522	1.000000 Head
AG804_fair 1509	1.000000 Head
EM688_fair 1531	1.000000 Head
WG279_fair 1624	1.000000 Head
EM674_fair 1492	1.000000 Head
PS056_poor 1472	1.000000 Head
IB887_fair 1416	1.000000 Head
EM691_fair 1539	1.000000 Head
NE446_fair 1492	1.000000 Head
RR270_fair 1464	1.000000 Head
MP948_fair 1311	1.000000 Head
QL686_fair 768	1.000000 Head
RD993_fair 764	1.000000 Head
TI162_fair 758	1.000000 Head
MF525_poor 762	1.000000 Head
HW429_fair 1166	1.000000 Head
LU915_fair 1124	1.000000 Head
QN860_fair 827	1.000000 Head
SE872_fair 1134	1.000000 Head
SE923_fair 1393	1.000000 Head
UC554_fair 1084	1.000000 Head
TX338_fair 1399	1.000000 Head
YE244_fair 1139	1.000000 Head
IG077_fair 1462	1.000000 Head
LC412_poor 1390	1.000000 Head
CZ223_fair 1392	1.000000 Head
NS158_fair 1396	1.000000 Head
UK746_fair 1408	1.000000 Head
LE367_fair 1392	1.000000 Head
KL129_fair 1372	1.000000 Head
UA840_poor 1430	1.000000 Head
LD386_fair 1411	1.000000 Head
NB583_fair 1414	1.000000 Head
LC407_poor 1356	1.000000 Head
LB410_fair 1338	1.000000 Head
DC456_poor 1131	1.000000 Head
OU378_fair 1390	1.000000 Head
MV361_fair 1136	1.000000 Head
OM219_fair 1125	1.000000 Head
LC413_fair 875	1.000000 Head
DV588_poor 879	1.000000 Head
VC101_fair 1074	1.000000 Head
OO387_poor 1702	1.000000 Head
BQ476_good 1361	1.000000 Head
KY061_fair 1441	1.000000 Head
QS225_fair 1392	1.000000 Head
SM830_fair 1331	1.000000 Head
TZ160_good 1331	1.000000 Head
TX195_fair 1393	1.000000 Head
UN322_fair 1395	1.000000 Head
UN335_good 1382	1.000000 Head
WN936_good 1401	1.000000 Head
WO402_good 1383	1.000000 Head
TZ209_fair 1407.5	1.000000 Head
BF120_poor 1243	1.000000 Head
SH033_fair 1621	1.000000 Head
QM231_fair 1525	1.000000 Head
CN298_poor 1536	1.000000 Head
CN730_fair 1490	1.000000 Head
RA867_fair 1548	1.000000 Head
TP013_fair 991	1.000000 Head
DF203_fair 793	1.000000 Head
SS634_poor 761	1.000000 Head
UK597_fair 772	1.000000 Head
SS642_fair 1392	1.000000 Head
DB477_fair 1398	1.000000 Head
GD671_fair 1392	1.000000 Head
MB643_fair 1394	1.000000 Head
GL258_poor 1387	1.000000 Head
NT711_fair 1391	1.000000 Head
ER346_fair 1416	1.000000 Head
KN134_poor 1400	1.000000 Head
GK697_poor 1130	1.000000 Head
NS960_poor 1159	1.000000 Head
QY315_fair 1156	1.000000 Head
HV223_fair 761	1.000000 Head
LD821_fair 821	1.000000 Head
KN403_poor 1164	1.000000 Head
KK209_fair 1681	1.000000 Head
KK210_fair 1681	1.000000 Head
IB648_fair 1693	1.000000 Head
RG621_good 1411	1.000000 Head
SE946_good 1402	1.000000 Head
TB082_fair 1412	1.000000 Head
UW305_fair 1487	1.000000 Head
EC103_good 1418	1.000000 Head
JB350_poor 986	1.000000 Head
FK980_fair 1520	1.000000 Head
FQ537_fair 1441	1.000000 Head
KY100_fair 1441	1.000000 Head
WH901_fair 1520	1.000000 Head
DC368_fair 1500	1.000000 Head
HL539_fair 1630	1.000000 Head
IB051_fair 1491	1.000000 Head
SS546_fair 1423	1.000000 Head
LZ098_fair 1439	1.000000 Head
FY509_fair 1555	1.000000 Head
LV307_fair 1492	1.000000 Head
HY811_fair 1538	1.000000 Head
IQ999_fair 1443	1.000000 Head
GD067_fair 771	1.000000 Head
SK295_fair 830	1.000000 Head
UH090_fair 1131	1.000000 Head
TN762_fair 783	1.000000 Head
QJ488_fair 1391	1.000000 Head
QN859_fair 911	1.000000 Head
RM886_fair 1112	1.000000 Head
TS709_fair 1108	1.000000 Head
SA049_fair 1104	1.000000 Head
TG709_fair 1400	1.000000 Head
TN326_fair 1395	1.000000 Head
VK817_fair 1003	1.000000 Head
UM412_fair 1390	1.000000 Head
UF223_fair 1107	1.000000 Head
UF229_fair 963	1.000000 Head
UV301_fair 1082	1.000000 Head
UV320_fair 994	1.000000 Head
UZ899_fair 1392	1.000000 Head
VC472_fair 1104	1.000000 Head
UA843_fair 1390	1.000000 Head
UA827_fair 1389	1.000000 Head
IC717_fair 1390	1.000000 Head
LC400_poor 1389	1.000000 Head
TF738_fair 1397	1.000000 Head
MV322_fair 1390	1.000000 Head
TF794_fair 1390	1.000000 Head
KN406_fair 1393	1.000000 Head
LA728_fair 1400	1.000000 Head
QJ313_fair 1342	1.000000 Head
LA492_fair 1301	1.000000 Head
KN408_fair 1309	1.000000 Head
KY406_fair 1411	1.000000 Head
OS533_fair 1133	1.000000 Head
NE509_fair 1170	1.000000 Head
OJ071_fair 1134	1.000000 Head
SL208_fair 1169	1.000000 Head
OM497_poor 1222	1.000000 Head
OI883_fair 1057	1.000000 Head
HP406_poor 1282	1.000000 Head
QN867_fair 1081	1.000000 Head
OM500_fair 1022	1.000000 Head
CA216_fair 1024	1.000000 Head
HJ486_fair 1103	1.000000 Head
EK876_fair 1105	1.000000 Head
CA207_fair 1108	1.000000 Head
ME773_fair 1111	1.000000 Head
VK813_fair 1103	1.000000 Head
TU863_fair 980	1.000000 Head
LF713_fair 1051	1.000000 Head
SL543_good 1690	1.000000 Head
RN873_fair 1691	1.000000 Head
CZ938_good 1323	1.000000 Head
RG045_fair 1310	1.000000 Head
SO904_good 1369	1.000000 Head
SR657_fair 1312	1.000000 Head
TB096_good 1310	1.000000 Head
TW628_good 1410	1.000000 Head
UQ352_poor 1330	1.000000 Head
WN915_good 1390	1.000000 Head
UW304_fair 1318	1.000000 Head
SK201_fair 1530.6	1.000000 Head
HK189_fair 1511	1.000000 Head
SH032_fair 1619	1.000000 Head
AZ939_fair 1499	1.000000 Head
CN991_fair 1499	1.000000 Head
OK241_fair 1490	1.000000 Head
RC701_fair 1476	1.000000 Head
RM154_fair 1420	1.000000 Head
AS125_fair 1412	1.000000 Head
TO460_fair 1449	1.000000 Head
KK198_poor 791	1.000000 Head
NQ692_fair 1398	1.000000 Head
QJ362_fair 1134	1.000000 Head
QJ518_fair 1173	1.000000 Head
RQ099_good 1201	1.000000 Head
SE927_fair 1122	1.000000 Head
TW173_fair 1387	1.000000 Head
TV041_fair 1365	1.000000 Head
WP200_fair 1130	1.000000 Head
CI556_fair 1472	1.000000 Head
HU966_fair 1392	1.000000 Head
QY297_fair 1388	1.000000 Head
CZ217_fair 1396	1.000000 Head
TF762_fair 1397	1.000000 Head
RQ006_poor 1420	1.000000 Head
CI558_fair 1326	1.000000 Head
TF768_fair 1398	1.000000 Head
IW686_poor 1329	1.000000 Head
NO326_fair 1440	1.000000 Head
DS066_poor 1686	1.000000 Head
CE693_fair 1311	1.000000 Head
DE265_good 1377	1.000000 Head
RB063_good 1385	1.000000 Head
SM811_good 1389	1.000000 Head
SN914_fair 1401	1.000000 Head
WG978_good 1366	1.000000 Head
VK640_fair 1387	1.000000 Head
IW834_poor 1447	1.000000 Head
GC601_fair 1605	1.000000 Head
OU370_fair 1432	1.000000 Head
UR579_fair 1542	1.000000 Head
DO185_fair 1538	1.000000 Head
QQ072_fair 1508	1.000000 Head
SM889_fair 1525	1.000000 Head
AX610_fair 1496	1.000000 Head
UV375_fair 1497	1.000000 Head
AH938_fair 1498	1.000000 Head
SS536_fair 1490	1.000000 Head
UF371_poor 1517	1.000000 Head
TC313_fair 1508	1.000000 Head
LB406_fair 1419	1.000000 Head
TF773_poor 1444	1.000000 Head
MV912_fair 1541	1.000000 Head
EM690_fair 1540	1.000000 Head
QS077_fair 1532	1.000000 Head
GZ827_fair 1548	1.000000 Head
HY803_fair 1479	1.000000 Head
SL549_fair 1480	1.000000 Head
UH078_fair 1398	1.000000 Head
RF972_fair 1099	1.000000 Head
VK023_fair 1236	1.000000 Head
BQ266_fair 1051	1.000000 Head
LV308_fair 1388	1.000000 Head
OR424_fair 1010	1.000000 Head
RM893_fair 1036	1.000000 Head
UF640_fair 1339	1.000000 Head
SA060_fair 980	1.000000 Head
QX633_fair 1390	1.000000 Head
OK697_fair 1392	1.000000 Head
TO968_fair 919	1.000000 Head
UF216_fair 747	1.000000 Head
UV376_poor 891	1.000000 Head
UV331_fair 1111	1.000000 Head
VC560_fair 1417	1.000000 Head
LD381_fair 1396	1.000000 Head
OS532_fair 1394	1.000000 Head
SS667_fair 1385	1.000000 Head
OJ060_fair 1389	1.000000 Head
NE776_fair 1388	1.000000 Head
DC460_fair 1389	1.000000 Head
LC747_fair 1387	1.000000 Head
LA472_fair 1388	1.000000 Head
RU063_fair 1385	1.000000 Head
UK745_fair 1388	1.000000 Head
UA845_poor 1390	1.000000 Head
UZ900_fair 1398	1.000000 Head
SS637_fair 1403	1.000000 Head
GL248_poor 1388	1.000000 Head
GD159_fair 1393	1.000000 Head
OU373_fair 1388	1.000000 Head
HV214_poor 1387	1.000000 Head
UK764_fair 1388	1.000000 Head
SS656_fair 1369	1.000000 Head
VC551_poor 1459	1.000000 Head
SS641_fair 1429	1.000000 Head
RA777_fair 1445	1.000000 Head
UA816_fair 1408	1.000000 Head
NE245_fair 1413	1.000000 Head
MD385_fair 1413	1.000000 Head
IK625_fair 1339	1.000000 Head
QX292_fair 1378	1.000000 Head
TB789_fair 1192	1.000000 Head
LB977_fair 1131	1.000000 Head
LE860_fair 1127	1.000000 Head
TF798_fair 1125	1.000000 Head
AZ933_fair 1117	1.000000 Head
NS137_fair 898	1.000000 Head
HK004_fair 1229	1.000000 Head
LC416_poor 1194	1.000000 Head
OS508_fair 1129	1.000000 Head
UR522_poor 966	1.000000 Head
NS142_fair 1053	1.000000 Head
AA692_poor 1126	1.000000 Head
TB918_fair 1107	1.000000 Head
NX528_fair 1054	1.000000 Head
LE868_fair 829	1.000000 Head
TB912_fair 913	1.000000 Head
TF752_poor 1100	1.000000 Head
TJ230_fair 976	1.000000 Head
SA063_good 1064	1.000000 Head
HK160_fair 1678	1.000000 Head
SL506_fair 1688	1.000000 Head
RR273_fair 1688	1.000000 Head
SL544_fair 1698	1.000000 Head
NR060_poor 1685	1.000000 Head
IW671_good 1368	1.000000 Head
EC052_fair 1379	1.000000 Head
GS829_good 1322	1.000000 Head
UB480_fair 1388	1.000000 Head
SE075_good 1392	1.000000 Head
SK204_fair 1389	1.000000 Head
SS569_good 1370	1.000000 Head
WL054_good 1378	1.000000 Head
UN344_fair 1389	1.000000 Head
VB634_poor 1383	1.000000 Head
VE667_good 1350	1.000000 Head
SK274_good 1359.4	1.000000 Head
LH573_fair 980	1.000000 Head
TX163_fair 1520	1.000000 Head
NB599_fair 1517	1.000000 Head
TQ561_fair 1617	1.000000 Head
TB799_fair 1445	1.000000 Head
RA729_fair 1431	1.000000 Head
IA326_fair 1209	1.000000 Head
DW044_fair 1411	1.000000 Head
AP807_fair 1112	1.000000 Head
GV508_fair 1420	1.000000 Head
TK375_fair 1102	1.000000 Head
KT791_poor 1382	1.000000 Head
MJ053_fair 1392	1.000000 Head
HO300_fair 1395	1.000000 Head
LL230_poor 1382	1.000000 Head
WH837_fair 1394	1.000000 Head
WH836_fair 1391	1.000000 Head
OD904_fair 1128	1.000000 Head
DE186_poor 1144	1.000000 Head
WM206_fair 1135	1.000000 Head
RM884_fair 1114	1.000000 Head
RL695_fair 1369	1.000000 Head
QQ062_fair 1330	1.000000 Head
SK250_fair 1391	1.000000 Head
TB068_fair 1318	1.000000 Head
SN905_fair 1387	1.000000 Head
TG725_fair 1307	1.000000 Head
TG737_fair 1399	1.000000 Head
TW166_fair 1388	1.000000 Head
WO421_good 1402	1.000000 Head
FD070_poor 1502	1.000000 Head
MM908_fair 1554	1.000000 Head
QQ058_fair 1558	1.000000 Head
DO198_fair 1558	1.000000 Head
AH940_poor 1457	1.000000 Head
NK923_fair 1437	1.000000 Head
CP937_poor 1398	1.000000 Head
LF578_fair 1408	1.000000 Head
UV378_fair 1403	1.000000 Head
UH081_fair 1524	1.000000 Head
FY997_fair 1497	1.000000 Head
OC736_fair 748	1.000000 Head
UX408_fair 792	1.000000 Head
UO444_fair 787	1.000000 Head
SS633_fair 1395	1.000000 Head
LE389_fair 1387	1.000000 Head
SE100_fair 1365	1.000000 Head
SE865_fair 1401	1.000000 Head
RG096_fair 739	1.000000 Head
VK781_fair 1154	1.000000 Head
UA802_fair 1480	1.000000 Head
UV369_fair 1386	1.000000 Head
OS530_fair 1387	1.000000 Head
NN993_fair 1410	1.000000 Head
LC952_fair 1133	1.000000 Head
CY622_fair 1391	1.000000 Head
QX272_fair 1096	1.000000 Head
UA831_poor 1230	1.000000 Head
VC558_fair 1402	1.000000 Head
QX286_fair 1071	1.000000 Head
DQ105_fair 1105	1.000000 Head
NS583_poor 1696	1.000000 Head
HY808_fair 1677	1.000000 Head
UR569_poor 1699	1.000000 Head
GU384_good 1306	1.000000 Head
WO974_fair 1393	1.000000 Head
HT965_poor 1355	1.000000 Head
NQ948_fair 1376	1.000000 Head
QY260_fair 1367	1.000000 Head
RA747_good 1372	1.000000 Head
SK238_good 1352	1.000000 Head
WJ599_fair 1316	1.000000 Head
UF390_fair 1389	1.000000 Head
WN066_good 1358	1.000000 Head
UW290_fair 1549	1.000000 Head
MX799_poor 1575	1.000000 Head
OK118_poor 1536	1.000000 Head
GC604_fair 1553	1.000000 Head
GC603_fair 1526	1.000000 Head
TP655_fair 1522	1.000000 Head
HX566_fair 1494	1.000000 Head
TK642_poor 1507	1.000000 Head
LB761_fair 1421	1.000000 Head
UR575_fair 1381	1.000000 Head
FQ156_fair 1415	1.000000 Head
HY809_fair 1410	1.000000 Head
DO167_fair 1466	1.000000 Head
FQ151_fair 1416	1.000000 Head
QS079_fair 1423	1.000000 Head
RF988_fair 807	1.000000 Head
JD049_fair 1373	1.000000 Head
SW056_fair 1046	1.000000 Head
QJ575_fair 1133	1.000000 Head
QJ514_fair 1130	1.000000 Head
OT965_fair 1339	1.000000 Head
RB078_poor 1397	1.000000 Head
WI758_fair 1435	1.000000 Head
SW201_fair 1395	1.000000 Head
TN333_fair 1450	1.000000 Head
TM062_fair 1128	1.000000 Head
WN932_fair 1455	1.000000 Head
UV310_fair 1017	1.000000 Head
UV321_fair 1099	1.000000 Head
LC729_fair 1401	1.000000 Head
AZ932_fair 1391	1.000000 Head
LE368_fair 1473	1.000000 Head
ER347_poor 1385	1.000000 Head
KN404_fair 1395	1.000000 Head
RE356_fair 1201	1.000000 Head
NE782_fair 1402	1.000000 Head
RE355_fair 1328	1.000000 Head
KN409_fair 1305	1.000000 Head
DC867_fair 1313	1.000000 Head
DA235_fair 1427	1.000000 Head
UZ891_fair 1383	1.000000 Head
UA829_fair 1128	1.000000 Head
NE255_fair 1343	1.000000 Head
VC556_poor 1406	1.000000 Head
LC417_fair 1138	1.000000 Head
SC713_fair 1136	1.000000 Head
LB979_fair 1117	1.000000 Head
LC738_fair 1136	1.000000 Head
NE789_fair 1226	1.000000 Head
QN890_fair 1162	1.000000 Head
NE256_fair 1160	1.000000 Head
OM455_fair 1048	1.000000 Head
TS715_fair 976	1.000000 Head
UF222_good 982	1.000000 Head
RU052_fair 1097	1.000000 Head
HZ942_fair 1084	1.000000 Head
KK244_fair 1110	1.000000 Head
NC372_poor 1096	1.000000 Head
HJ457_fair 1105	1.000000 Head
HP431_poor 1181	1.000000 Head
CA227_fair 1087	1.000000 Head
MD706_fair 1085	1.000000 Head
HP404_fair 1104	1.000000 Head
KK227_fair 1112	1.000000 Head
UF226_fair 1005	1.000000 Head
MD714_fair 987	1.000000 Head
TS704_good 1153	1.000000 Head
VK807_good 1159	1.000000 Head
UZ876_fair 1178	1.000000 Head
MP934_fair 1689	1.000000 Head
WP098_poor 1683	1.000000 Head
SC711_fair 1397	1.000000 Head
UF365_fair 1407	1.000000 Head
OC687_good 1350	1.000000 Head
RG037_good 1387	1.000000 Head
RG083_fair 1356	1.000000 Head
RK255_good 1384	1.000000 Head
RK257_fair 1366	1.000000 Head
SE077_fair 1311	1.000000 Head
RP910_fair 1367	1.000000 Head
UF668_fair 1348	1.000000 Head
WN925_fair 1383	1.000000 Head
GP283_fair 1385.5	1.000000 Head
NS726_fair 1504	1.000000 Head
SM835_fair 1503	1.000000 Head
SW311_fair 1542	1.000000 Head
UR320_fair 1416	1.000000 Head
UR525_poor 1436	1.000000 Head
HU967_fair 1417	1.000000 Head
EO290_poor 1419	1.000000 Head
SL507_fair 1277	1.000000 Head
TX178_poor 1428	1.000000 Head
RU057_poor 1380	1.000000 Head
WH001_fair 1076	1.000000 Head
WG165_fair 1301	1.000000 Head
TN761_poor 750	1.000000 Head
GV515_fair 1103	1.000000 Head
QW377_fair 1094	1.000000 Head
QW378_fair 1365	1.000000 Head
SL230_fair 1411	1.000000 Head
SL240_fair 1123	1.000000 Head
SL213_fair 1332	1.000000 Head
RU371_fair 1136	1.000000 Head
SW210_fair 1136	1.000000 Head
TM033_fair 1218	1.000000 Head
EQ190_fair 1384	1.000000 Head
OU360_fair 1394	1.000000 Head
UR519_fair 1469	1.000000 Head
HU965_fair 1395	1.000000 Head
LE863_poor 1313	1.000000 Head
UV374_fair 1345	1.000000 Head
TB904_fair 1366	1.000000 Head
LA491_poor 1298	1.000000 Head
DD028_fair 1410	1.000000 Head
SS657_fair 1381	1.000000 Head
UV367_fair 1385	1.000000 Head
YE322_fair 1393	1.000000 Head
NS463_fair 1143	1.000000 Head
UA810_fair 1117	1.000000 Head
LE871_poor 1122	1.000000 Head
QX652_fair 1126	1.000000 Head
ON259_poor 1119	1.000000 Head
RH238_fair 1121	1.000000 Head
DA241_poor 1187	1.000000 Head
SS661_fair 1217	1.000000 Head
QJ579_fair 1151	1.000000 Head
UK757_fair 1109	1.000000 Head
CJ053_fair 1104	1.000000 Head
RM885_fair 1115	1.000000 Head
SH027_fair 1432	1.000000 Head
SO701_fair 1396	1.000000 Head
SQ562_fair 1386	1.000000 Head
TN773_fair 1353	1.000000 Head
UF602_fair 1398	1.000000 Head
WM934_good 1392	1.000000 Head
UR307_good 1372	1.000000 Head
UW587_fair 1343	1.000000 Head
YE279_fair 1316	1.000000 Head
CN284_fair 1431.1	1.000000 Head
SC708_fair 1417	1.000000 Head
LL424_fair 1492	1.000000 Head
SK253_fair 1531	1.000000 Head
UK735_fair 1415	1.000000 Head
MQ475_fair 1420	1.000000 Head
WM243_fair 1454	1.000000 Head
VL107_fair 1444	1.000000 Head
CC341_fair 1407	1.000000 Head
FQ564_poor 1574	1.000000 Head
VK010_fair 776	1.000000 Head
QJ612_fair 748	1.000000 Head
SL238_poor 1196	1.000000 Head
SS649_fair 1405	1.000000 Head
SN879_fair 1155	1.000000 Head
RL664_fair 1395	1.000000 Head
UN307_fair 1130	1.000000 Head
UV366_fair 1391	1.000000 Head
UZ884_fair 1120	1.000000 Head
YE315_fair 1325	1.000000 Head
ER348_fair 1397	1.000000 Head
TF770_fair 1393	1.000000 Head
TF793_fair 1395	1.000000 Head
TB908_fair 1409	1.000000 Head
UV353_fair 1400	1.000000 Head
TF796_fair 1369	1.000000 Head
UR521_fair 1333	1.000000 Head
AC586_fair 1326	1.000000 Head
NC966_fair 1477	1.000000 Head
LE380_fair 1429	1.000000 Head
LB762_fair 1413	1.000000 Head
OF291_fair 1402	1.000000 Head
CE694_poor 1378	1.000000 Head
RU062_fair 1414	1.000000 Head
TB794_fair 1132	1.000000 Head
NS135_fair 1155	1.000000 Head
OD939_fair 1122	1.000000 Head
NN587_fair 1115	1.000000 Head
UA815_fair 1132	1.000000 Head
TB800_fair 1105	1.000000 Head
LV304_fair 1324	1.000000 Head
UV372_fair 1167	1.000000 Head
MD778_fair 1096	1.000000 Head
LF903_fair 946	1.000000 Head
UZ878_good 1149	1.000000 Head
VF312_good 1141	1.000000 Head
LF736_poor 1134	1.000000 Head
WT187_fair 1138	1.000000 Head
QJ329_good 1157	1.000000 Head
UR559_fair 1538	1.000000 Head
BQ491_good 1404	1.000000 Head
ON267_good 1373	1.000000 Head
QM080_good 1384	1.000000 Head
SR613_fair 1367	1.000000 Head
VL151_good 1357	1.000000 Head
TI184_good 1382	1.000000 Head
UD050_fair 1354	1.000000 Head
WN922_fair 1304	1.000000 Head
SL225_fair 1412	1.000000 Head
MX695_fair 1540	1.000000 Head
MM790_fair 1572	1.000000 Head
UR633_fair 1550	1.000000 Head
DS018_fair 1506	1.000000 Head
CN343_fair 1511	1.000000 Head
OR216_fair 1622	1.000000 Head
DO170_poor 1626	1.000000 Head
UF373_poor 1501	1.000000 Head
LV319_poor 1417	1.000000 Head
NE447_fair 1493	1.000000 Head
OC771_fair 1473	1.000000 Head
UR565_fair 1323	1.000000 Head
MP949_fair 1405	1.000000 Head
DQ234_fair 1479	1.000000 Head
CE969_poor 1435	1.000000 Head
UH086_fair 1418	1.000000 Head
MN758_fair 775	1.000000 Head
OS506_fair 769	1.000000 Head
MP915_fair 1271	1.000000 Head
AP799_fair 665	1.000000 Head
WH817_fair 1467	1.000000 Head
NE504_fair 656	1.000000 Head
SE884_fair 1128	1.000000 Head
TS708_fair 1031	1.000000 Head
SO901_fair 1133	1.000000 Head
SW070_fair 1046	1.000000 Head
VK809_fair 941	1.000000 Head
SN924_fair 1392	1.000000 Head
TN327_fair 1388	1.000000 Head
TM054_fair 1130	1.000000 Head
UR543_fair 1216	1.000000 Head
UW315_fair 1112	1.000000 Head
YE319_fair 1053	1.000000 Head
OP641_fair 1373	1.000000 Head
KN133_fair 1391	1.000000 Head
KN416_fair 1472	1.000000 Head
WL049_fair 1462	1.000000 Head
DF206_poor 1382	1.000000 Head
LC401_fair 1393	1.000000 Head
UA842_fair 1383	1.000000 Head
QX644_fair 1382	1.000000 Head
TB917_fair 1401	1.000000 Head
LC953_fair 1396	1.000000 Head
IK550_poor 1392	1.000000 Head
LE370_fair 1382	1.000000 Head
LB972_fair 1382	1.000000 Head
AS871_fair 1394	1.000000 Head
SC714_fair 1349	1.000000 Head
NE519_fair 1319	1.000000 Head
EP039_fair 1293	1.000000 Head
IC706_fair 1296	1.000000 Head
LE879_fair 1432	1.000000 Head
MW945_good 1409	1.000000 Head
LA494_fair 1413	1.000000 Head
UR550_fair 1394	1.000000 Head
LB753_poor 1339	1.000000 Head
CX950_poor 1385	1.000000 Head
CJ059_fair 1366	1.000000 Head
UK750_poor 1340	1.000000 Head
IK648_fair 1134	1.000000 Head
TF746_fair 1378	1.000000 Head
SC728_poor 1391	1.000000 Head
LB975_poor 1145	1.000000 Head
LE383_fair 1114	1.000000 Head
LB971_fair 1132	1.000000 Head
SS650_poor 1140	1.000000 Head
TF771_poor 1102	1.000000 Head
IC723_fair 1148	1.000000 Head
NQ953_poor 1117	1.000000 Head
GD680_fair 1118	1.000000 Head
KN698_fair 1125	1.000000 Head
TF799_fair 1125	1.000000 Head
HV230_fair 1127	1.000000 Head
LC743_good 1121	1.000000 Head
LC739_fair 1142	1.000000 Head
LD823_fair 1161	1.000000 Head
RA753_fair 1150	1.000000 Head
NE784_fair 1161	1.000000 Head
DA239_fair 1137	1.000000 Head
OI893_fair 1039	1.000000 Head
OM488_fair 1085	1.000000 Head
LC949_poor 855	1.000000 Head
HJ449_poor 1114	1.000000 Head
DC862_poor 1121	1.000000 Head
MD736_poor 1093	1.000000 Head
LB770_poor 1098	1.000000 Head
HJ490_fair 924	1.000000 Head
QN891_fair 980	1.000000 Head
CJ551_poor 970	1.000000 Head
LF910_fair 1080	1.000000 Head
OR959_fair 1150	1.000000 Head
VK806_fair 1166	1.000000 Head
VL133_fair 1146	1.000000 Head
WO403_fair 1140	1.000000 Head
OK696_fair 1137	1.000000 Head
NK116_good 1146	1.000000 Head
LA726_fair 1145	1.000000 Head
AS870_fair 1161	1.000000 Head
UR613_fair 1681	1.000000 Head
MN747_fair 1311	1.000000 Head
GU372_fair 1386	1.000000 Head
IG043_good 1381	1.000000 Head
NE155_fair 1432	1.000000 Head
OU604_good 1382	1.000000 Head
RS455_fair 1302	1.000000 Head
SM885_good 1418	1.000000 Head
OR204_poor 1391	1.000000 Head
SQ527_good 1360	1.000000 Head
VL121_fair 1330	1.000000 Head
TL027_fair 1385	1.000000 Head
TZ220_good 1368	1.000000 Head
BF121_poor 1201	1.000000 Head
TO453_fair 1583	1.000000 Head
UR576_fair 1473	1.000000 Head
UA836_fair 1415	1.000000 Head
CN990_poor 1486	1.000000 Head
AZ947_poor 1421	1.000000 Head
UX495_fair 765	1.000000 Head
OU353_fair 1414	1.000000 Head
KP830_fair 1492	1.000000 Head
NN989_fair 827	1.000000 Head
JB356_fair 1339	1.000000 Head
RU005_fair 893	1.000000 Head
TX318_fair 1058	1.000000 Head
SO929_fair 1401	1.000000 Head