pcf
* control data
restart estimation
16 3440 5 0 8
1  1  double  point  1  0  0
25.0   -3.0    0.3    0.03    -10  999	  LAMFORGIVE
3.000000e+000  3.000000e+000  1.000000e-003
1.000000e-001 noaui
0  1.000000e-004  3  3  1.000000e-004  3
1  1  1 1  nojcosaveitn reisaveitn PARSAVEITN
* singular value decomposition
1
15 5e-7
0
* parameter groups
Kh     relative   1.000000e-002  0.000000e+000  switch  2.000000e+000  parabolic
Base   relative   1.000000e-002  0.000000e+000  switch  2.000000e+000  parabolic
Khi    relative   1.000000e-002  0.000000e+000  switch  2.000000e+000  parabolic
Rch    relative   1.000000e-002  0.000000e+000  switch  2.000000e+000  parabolic
Res    relative   1.000000e-002  0.000000e+000  switch  2.000000e+000  parabolic
* parameter data
conductivity	log   factor   0.3463511      .05	 5	kh     1.0      0.0 1
base________	fixed factor   -4500.000      -45000	-450	base   1.0      0.0 1
kcopper1____	log   factor    2.457766      .4	 40	khi    1.0      0.0 1
kcopper3____	log   factor   0.2829748      .03	 3	khi    1.0      0.0 1
kmiller_____	log   factor   0.3734056      .06	 6	khi    1.0      0.0 1
kshallowbrw_	log   factor   7.1453389E-02  .03	 3	khi    1.0      0.0 1
kshbedrocke_	log   factor   0.1926111      .03	 3	khi    1.0      0.0 1
rcopper1____	log   factor   1.6094715E-03  .00035	 .035	rch    -1.0     0.0 1
rcopper2____	log   factor   1.2647361E-03  .00025	 .025	rch    -1.0     0.0 1
rcopper3____	log   factor   5.3175898E-03  .0003	 .03	rch    -1.0     0.0 1
rmiller_____	log   factor   1.2440562E-03  .0001	 .01	rch    -1.0     0.0 1
rshallowbrw_	log   factor   2.4000000E-04  .00024	 .024	rch    -1.0     0.0 1
rshbedrocke_	log   factor   1.6102660E-03  .00024	 .024	rch    -1.0     0.0 1
cdrainage___	log   factor    1.384768      1	 100	res    1.0      0.0 1
cseepage____	log   factor    2.000000      2	 200	res    1.0      0.0 1
cstream_____	log   factor    4.323622      .05	 5	res    1.0      0.0 1
* observation groups
head_lgtrm
head_good
head_misc
head_fair
head_poor
flux_USGSmis
flux_USGSgag
flux_USFS
* observation data
AS0054_longtrm                    1511.14          5.0        head_lgtrm
BA0242_longtrm                    1219.82          5.0        head_lgtrm
BA0241_longtrm                    1219.99          5.0        head_lgtrm
AS0006_longtrm                    1441.37          5.0        head_lgtrm
BA0124_longtrm                    1087.51          5.0        head_lgtrm
BA0198_longtrm                    1044.67          5.0        head_lgtrm
VD005_good                           1327          0.5        head_good
NX578_good                          986.9          0.5        head_good
HP539_good                          992.8          0.5        head_good
NO308_good                            995          0.5        head_good
CM822_good                            994          0.5        head_good
RQ066_good                           1384          0.5        head_good
HK421_good                           1691          0.5        head_good
VK005_good                           1368          0.5        head_good
TO457_good                           1359          0.5        head_good
SK288_good                           1388          0.5        head_good
TN335_good                           1395          0.5        head_good
VF326_good                           1392          0.5        head_good
RL618_good                           1384          0.5        head_good
RK273_good                           1385          0.5        head_good
SH034_good                           1374          0.5        head_good
TL014_good                           1389          0.5        head_good
TZ159_good                           1353          0.5        head_good
BQ476_good                           1361          0.5        head_good
TZ160_good                           1331          0.5        head_good
UN335_good                           1382          0.5        head_good
WN936_good                           1401          0.5        head_good
WO402_good                           1383          0.5        head_good
RG621_good                           1411          0.5        head_good
SE946_good                           1402          0.5        head_good
EC103_good                           1418          0.5        head_good
SL543_good                           1690          0.5        head_good
CZ938_good                           1323          0.5        head_good
SO904_good                           1369          0.5        head_good
TB096_good                           1310          0.5        head_good
TW628_good                           1410          0.5        head_good
WN915_good                           1390          0.5        head_good
RQ099_good                           1201          0.5        head_good
DE265_good                           1377          0.5        head_good
RB063_good                           1385          0.5        head_good
SM811_good                           1389          0.5        head_good
WG978_good                           1366          0.5        head_good
SA063_good                           1064          0.5        head_good
IW671_good                           1368          0.5        head_good
GS829_good                           1322          0.5        head_good
SE075_good                           1392          0.5        head_good
SS569_good                           1370          0.5        head_good
WL054_good                           1378          0.5        head_good
VE667_good                           1350          0.5        head_good
SK274_good                         1359.4          0.5        head_good
WO421_good                           1402          0.5        head_good
GU384_good                           1306          0.5        head_good
RA747_good                           1372          0.5        head_good
SK238_good                           1352          0.5        head_good
WN066_good                           1358          0.5        head_good
UF222_good                            982          0.5        head_good
TS704_good                           1153          0.5        head_good
VK807_good                           1159          0.5        head_good
OC687_good                           1350          0.5        head_good
RG037_good                           1387          0.5        head_good
RK255_good                           1384          0.5        head_good
WM934_good                           1392          0.5        head_good
UR307_good                           1372          0.5        head_good
UZ878_good                           1149          0.5        head_good
VF312_good                           1141          0.5        head_good
QJ329_good                           1157          0.5        head_good
BQ491_good                           1404          0.5        head_good
ON267_good                           1373          0.5        head_good
QM080_good                           1384          0.5        head_good
VL151_good                           1357          0.5        head_good
TI184_good                           1382          0.5        head_good
MW945_good                           1409          0.5        head_good
LC743_good                           1121          0.5        head_good
NK116_good                           1146          0.5        head_good
IG043_good                           1381          0.5        head_good
OU604_good                           1382          0.5        head_good
SM885_good                           1418          0.5        head_good
SQ527_good                           1360          0.5        head_good
TZ220_good                           1368          0.5        head_good
OV281_good                           1393          0.5        head_good
QJ436_good                           1299          0.5        head_good
SR658_good                           1355          0.5        head_good
SS658_good                           1460          0.5        head_good
TJ243_good                            992          0.5        head_good
WH445_good                            957          0.5        head_good
RL669_good                           1314          0.5        head_good
SH029_good                           1380          0.5        head_good
SM280_good                           1360          0.5        head_good
SK296_good                           1350          0.5        head_good
OR247_good                           1392          0.5        head_good
SR680_good                           1381          0.5        head_good
SZ119_good                           1385          0.5        head_good
YE262_good                           1307          0.5        head_good
QP968_good                           1382          0.5        head_good
SC825_good                           1319          0.5        head_good
OR208_good                           1326          0.5        head_good
QP928_good                           1340          0.5        head_good
QP983_good                           1392          0.5        head_good
TD440_good                           1381          0.5        head_good
VJ463_good                           1343          0.5        head_good
RB085_good                           1309          0.5        head_good
SO923_good                           1306          0.5        head_good
WN911_good                           1400          0.5        head_good
OV294_good                           1302          0.5        head_good
SM852_good                           1379          0.5        head_good
SN874_good                           1383          0.5        head_good
TD450_good                           1408          0.5        head_good
UZ128_good                           1427          0.5        head_good
OM457_good                           1119          0.5        head_good
QJ371_good                           1155          0.5        head_good
UF366_good                           1387          0.5        head_good
OV296_good                           1392          0.5        head_good
SO739_good                           1351          0.5        head_good
SZ120_good                           1377          0.5        head_good
TB018_good                           1321          0.5        head_good
VK829_good                           1398          0.5        head_good
VL145_good                           1356          0.5        head_good
WG141_good                           1368          0.5        head_good
TM047_good                           1336          0.5        head_good
UA067_good                           1300          0.5        head_good
UQ393_good                           1413          0.5        head_good
WM950_good                           1392          0.5        head_good
NS462_good                           1378          0.5        head_good
LA493_good                           1384          0.5        head_good
RB027_good                           1388          0.5        head_good
SE021_good                           1390          0.5        head_good
SH096_good                           1359          0.5        head_good
CJ070_good                           1153          0.5        head_good
SK287_good                           1372          0.5        head_good
SQ566_good                           1384          0.5        head_good
RG038_good                           1353          0.5        head_good
SH065_good                           1452          0.5        head_good
TL018_good                           1410          0.5        head_good
UZ121_good                           1329          0.5        head_good
QN887_good                            828          0.5        head_good
RB971_good                           1049          0.5        head_good
TS703_good                           1040          0.5        head_good
OR968_good                           1067          0.5        head_good
MQ745_good                           1137          0.5        head_good
TB902_good                           1146          0.5        head_good
HZ803_good                           1374          0.5        head_good
TD437_good                           1309          0.5        head_good
WH803_good                           1312          0.5        head_good
CZ220_good                           1382          0.5        head_good
KN694_good                           1149          0.5        head_good
UV319_good                           1143          0.5        head_good
HV226_good                           1162          0.5        head_good
HT827_good                           1358          0.5        head_good
RG631_good                           1357          0.5        head_good
UE486_good                           1385          0.5        head_good
DN953_good                           1378          0.5        head_good
MJ033_good                           1386          0.5        head_good
WM235_good                           1386          0.5        head_good
US087_good                           1336          0.5        head_good
VJ464_good                           1333          0.5        head_good
UV325_good                           1136          0.5        head_good
ON208_good                           1133          0.5        head_good
VC531_good                           1148          0.5        head_good
RS375_good                           1393          0.5        head_good
WM946_good                           1396          0.5        head_good
UW310_good                           1350          0.5        head_good
TM048_good                         1331.5          0.5        head_good
QS252_good                           1390          0.5        head_good
TL021_good                           1366          0.5        head_good
QN871_good                           1060          0.5        head_good
CE716_good                           1380          0.5        head_good
UU614_good                           1341          0.5        head_good
UZ149_good                           1379          0.5        head_good
SZ373_good                           1147          0.5        head_good
RB065_good                           1363          0.5        head_good
VL129_good                           1366          0.5        head_good
TD478_good                           1358          0.5        head_good
TX198_good                           1331          0.5        head_good
OF230_good                           1012          0.5        head_good
WN937_good                           1358          0.5        head_good
SR627_good                           1305          0.5        head_good
OM228_good                           1366          0.5        head_good
TD403_good                           1382          0.5        head_good
UD006_good                           1372          0.5        head_good
UX490_good                           1365          0.5        head_good
MQ494_good                           1319          0.5        head_good
OV878_good                           1317          0.5        head_good
UL200_good                           1367          0.5        head_good
RA782_good                            670          0.5        head_good
UX517_good                           1370          0.5        head_good
TN774_good                           1321          0.5        head_good
RR017_good                           1333          0.5        head_good
QN863_good                           1105          0.5        head_good
SA073_good                           1127          0.5        head_good
WP198_good                           1332          0.5        head_good
UQ261_good                           1379          0.5        head_good
VE167_good                           1008          0.5        head_good
WO427_good                           1387          0.5        head_good
QJ531_good                           1005          0.5        head_good
SO062_good                            998          0.5        head_good
HJ438_good                           1065          0.5        head_good
KY317_good                           1000          0.5        head_good
AH979_good                            751          0.5        head_good
SM854_good                           1385          0.5        head_good
RB996_good                           1011          0.5        head_good
QN810_good                           1014          0.5        head_good
RR013_good                           1385          0.5        head_good
LB005_good                           1021          0.5        head_good
UC574_good                           1080          0.5        head_good
UN238_good                           1392          0.5        head_good
UJ114_good                           1381          0.5        head_good
NC331_good                            888          0.5        head_good
UL456_good                           1387          0.5        head_good
TU868_good                            854          0.5        head_good
NC342_good                            884          0.5        head_good
QN847_good                           1096          0.5        head_good
HV222_good                            781          0.5        head_good
ON257_good                           1087          0.5        head_good
RK197_KY391_good                    999.5          0.5        head_good
UZ559_UZ560_good                   1150.5          0.5        head_good
RS457_WM224_good                   1391.5          0.5        head_good
FQ138_CN280_good                     1294          0.5        head_good
CN296_CN297_poor                  1154.05            0        head_poor
DS0223_QW                            1095         0.05        head_misc
BA0085_QW                            1153         0.05        head_misc
BA0189_QW                         1167.15         0.05        head_misc
BA0191_QW                         1167.39         0.05        head_misc
BA0188_QW                         1167.04         0.05        head_misc
BA0195_QW                         1167.12         0.05        head_misc
BA0045_QW                            1075         0.05        head_misc
BA0123_QW                          1080.5         0.05        head_misc
BA0095_QW                            1312         0.05        head_misc
BA0075_QW                            1253         0.05        head_misc
SW0023_QW                            1389         0.05        head_misc
BA0014_QW                             916         0.05        head_misc
SW0113_QW                            1305         0.05        head_misc
SW0112_QW                         1320.63         0.05        head_misc
BA0136_QW                             924         0.05        head_misc
BA0137_QW                            1049         0.05        head_misc
BA0097_QW                             887         0.05        head_misc
BA0043_QW                             841         0.05        head_misc
BA0139_QW                             992         0.05        head_misc
SW0080_QW                            1401         0.05        head_misc
BA0154_QW                             795         0.05        head_misc
BA0168_QW                            1446         0.05        head_misc
AS0044_QW                            1423         0.05        head_misc
SW0047_QW                            1452         0.05        head_misc
AS0067_QW                            1384         0.05        head_misc
AS0100_QW                             765         0.05        head_misc
AS0228_QW                             760         0.05        head_misc
AS0195_QW                             808         0.05        head_misc
AS0229_QW                             760         0.05        head_misc
AS0192_QW                             761         0.05        head_misc
AS0066_QW                            1017         0.05        head_misc
AS0029_QW                            1240         0.05        head_misc
AS0011_QW                            1498         0.05        head_misc
PR0027_QW                            1528         0.05        head_misc
AS0017_2                          1216.39         0.05        head_misc
AS0210_2                             1003         0.05        head_misc
Minersville                           800         0.05        head_misc
TF747_OR938_fair                   1154.5          0.1        head_fair
SL237_OJ414_fair                     1310          0.1        head_fair
RA716_OF257_fair                   1372.5          0.1        head_fair
NT712_OR415_fair                    911.5          0.1        head_fair
OF229_NX530_fair                     1391          0.1        head_fair
OJ411_OJ416_fair                    976.5          0.1        head_fair
LE373_OJ402_fair                     1011          0.1        head_fair
DQ235_OC749_fair                   1419.5          0.1        head_fair
UL498_fair                            769          0.1        head_fair
DP993_fair                            890          0.1        head_fair
TA621_fair                            760          0.1        head_fair
RF977_fair                           1400          0.1        head_fair
SE936_fair                           1398          0.1        head_fair
AZ941_fair                            971          0.1        head_fair
QQ585_fair                          655.9          0.1        head_fair
MD757_fair                          900.5          0.1        head_fair
HY804_fair                           1490          0.1        head_fair
HI921_fair                            832          0.1        head_fair
OR960_fair                           1135          0.1        head_fair
QJ499_fair                           1114          0.1        head_fair
QN861_fair                            965          0.1        head_fair
SR689_fair                           1137          0.1        head_fair
VF332_fair                           1396          0.1        head_fair
AC590_fair                           1332          0.1        head_fair
LC740_fair                           1000          0.1        head_fair
WH426_fair                            975          0.1        head_fair
OR412_fair                           1129          0.1        head_fair
KP809_fair                            979          0.1        head_fair
SL542_fair                           1692          0.1        head_fair
GP250_fair                           1369          0.1        head_fair
OR209_fair                         1543.5          0.1        head_fair
CU608_fair                           1529          0.1        head_fair
SM886_fair                           1440          0.1        head_fair
NG185_fair                           1393          0.1        head_fair
GV530_fair                           1446          0.1        head_fair
RM894_fair                           1034          0.1        head_fair
RU038_fair                           1118          0.1        head_fair
AZ934_fair                           1397          0.1        head_fair
KL126_fair                           1419          0.1        head_fair
AA720_fair                           1396          0.1        head_fair
RH385_fair                           1130          0.1        head_fair
RR018_fair                           1397          0.1        head_fair
GP285_fair                         1386.5          0.1        head_fair
UH080_fair                           1526          0.1        head_fair
TF781_fair                           1424          0.1        head_fair
UR555_fair                           1493          0.1        head_fair
OU343_fair                           1489          0.1        head_fair
RF968_fair                           1475          0.1        head_fair
QP940_fair                           1123          0.1        head_fair
QS219_fair                           1396          0.1        head_fair
SW955_fair                           1074          0.1        head_fair
LC954_fair                           1393          0.1        head_fair
LC398_fair                           1395          0.1        head_fair
LC399_fair                           1396          0.1        head_fair
LB014_fair                           1394          0.1        head_fair
LB011_fair                           1407          0.1        head_fair
QX643_fair                           1394          0.1        head_fair
NE788_fair                           1414          0.1        head_fair
DD033_fair                           1130          0.1        head_fair
VC544_fair                           1127          0.1        head_fair
TF791_fair                           1123          0.1        head_fair
AC575_fair                           1006          0.1        head_fair
UT469_fair                           1046          0.1        head_fair
MK372_fair                         1394.5          0.1        head_fair
QQ100_fair                           1528          0.1        head_fair
TO442_fair                           1415          0.1        head_fair
QJ580_fair                            899          0.1        head_fair
DO181_fair                           1537          0.1        head_fair
QY271_fair                           1332          0.1        head_fair
NN997_fair                           1073          0.1        head_fair
IC716_fair                           1395          0.1        head_fair
SN877_fair                           1131          0.1        head_fair
RL677_fair                           1135          0.1        head_fair
NS954_fair                           1400          0.1        head_fair
CY625_fair                           1393          0.1        head_fair
OJ409_fair                           1393          0.1        head_fair
SW207_fair                           1394          0.1        head_fair
GL506_fair                           1133          0.1        head_fair
DC855_fair                           1142          0.1        head_fair
NY159_fair                           1693          0.1        head_fair
HV273_fair                           1695          0.1        head_fair
LE690_fair                           1686          0.1        head_fair
NR064_fair                           1688          0.1        head_fair
FK982_fair                           1378          0.1        head_fair
ON252_fair                           1399          0.1        head_fair
OR207_fair                           1380          0.1        head_fair
SS506_fair                           1407          0.1        head_fair
SW250_fair                           1385          0.1        head_fair
FQ141_fair                         1385.6          0.1        head_fair
FQ538_fair                           1432          0.1        head_fair
AZ948_fair                           1417          0.1        head_fair
NL893_fair                           1272          0.1        head_fair
TF778_fair                            795          0.1        head_fair
GV520_fair                           1290          0.1        head_fair
SW204_fair                           1128          0.1        head_fair
UM408_fair                            834          0.1        head_fair
UV316_fair                           1101          0.1        head_fair
AH987_fair                           1393          0.1        head_fair
SC723_fair                           1393          0.1        head_fair
TF782_fair                           1391          0.1        head_fair
UA850_fair                           1396          0.1        head_fair
TF743_fair                           1395          0.1        head_fair
OJ405_fair                           1405          0.1        head_fair
LC744_fair                           1392          0.1        head_fair
CI212_fair                           1394          0.1        head_fair
LD820_fair                           1394          0.1        head_fair
UA812_fair                           1414          0.1        head_fair
GL249_fair                           1391          0.1        head_fair
LE377_fair                           1394          0.1        head_fair
HT941_fair                           1385          0.1        head_fair
LA725_fair                           1130          0.1        head_fair
CJ557_fair                            805          0.1        head_fair
TF780_fair                            945          0.1        head_fair
LE867_fair                            835          0.1        head_fair
MP493_fair                           1120          0.1        head_fair
GL509_fair                           1112          0.1        head_fair
CA237_fair                           1055          0.1        head_fair
DU131_fair                           1705          0.1        head_fair
SK280_fair                           1378          0.1        head_fair
WN102_fair                           1358          0.1        head_fair
TV158_fair                         1518.5          0.1        head_fair
NC394_fair                         1353.4          0.1        head_fair
EM693_fair                           1547          0.1        head_fair
SM887_fair                           1454          0.1        head_fair
WN065_fair                           1432          0.1        head_fair
NS967_fair                           1420          0.1        head_fair