pcf
* control data
restart  estimation
17   106     5     0     1
1    1    single    point    1    0    0
5.0  2.0   0.3   0.03   10  
3.0  3.0   0.001
0.1
0   0.01  3     3      0.01  3
 1    1    1
* parameter groups
lg         relative     0.01     0.001     switch     2     parabolic
llg         relative     0.1     0.01     switch     2     parabolic
lllg         relative     1.0     0.1     switch     2     parabolic
ssm         relative     0.01     0.000001     switch     2     parabolic
sssm         relative    1e-13   1e-15        switch     2     parabolic
* parameter data
s21     log    factor  3       1     5      llg      1      0       1
s22     fixed    factor  6       3     6      llg      1      0       1
s24     fixed    factor  5       2     5      llg      1      0       1
s26     log    factor  3       2     6      llg      1      0       1
a21     log    factor  .07     .07    .1     lg      1      0       1  
a22     fixed    factor  .06     .06    .08     lg      1      0       1  
a24     fixed    factor  0.11    0.08    0.12  lg      1      0       1  
a26     log    factor  0.08    0.05    0.1   lg      1      0       1  
c11     log    factor  2       1     5      llg      1      0       1
c12     fixed    factor  7.8      4     10      llg      1      0       1
c14     fixed    factor  12     5     12      llg      1      0       1
c16     log    factor  3      1      5       llg      1      0       1
lhg     log    factor 2.46E-5  1E-6    3E-5      ssm      1      0       1
chc     log    factor  .01    .01      .1      lg       1      0       1
mac     fixed    factor   .00737 .00003     .01    ssm      1      0       1
mac_r   fixed    factor  .067    .05    .15       lg       1      0       1
LKs     log      factor   17.22  5       20       llg      1      0       1
* observation groups
tile_flow 
* observation data
t1	0	1	tile_flow
t2	0.039	1	tile_flow
t3	0.03	1	tile_flow
t4	0.013	1	tile_flow
t5	0.063	1	tile_flow
t6	0.096	1	tile_flow
t7	0.031	1	tile_flow
t8	0.014	1	tile_flow
t9	0.033	1	tile_flow
t10	0.226	1	tile_flow
t11	0.424	1	tile_flow
t12	0.06	1	tile_flow
t13	0.01	1	tile_flow
t14	0.069	1	tile_flow
t15	0.256	1	tile_flow
t16	0.094	1	tile_flow
t17	0.029	1	tile_flow
t18	0.009	1	tile_flow
t19	0.011	1	tile_flow
t20	0.038	1	tile_flow
t21	0.033	1	tile_flow
t22	0.02	1	tile_flow
t23	0.016	1	tile_flow
t24	0.006	1	tile_flow
t25	0.004	1	tile_flow
t26	0.001	1	tile_flow
t27	0	1	tile_flow
t28	0	1	tile_flow
t29	0.009	1	tile_flow
t30	0.246	1	tile_flow
t31	0.236	1	tile_flow
t32	0.218	1	tile_flow
t33	0.194	1	tile_flow
t34	0.164	1	tile_flow
t35	0.247	1	tile_flow
t36	0.09	1	tile_flow
t37	0.029	1	tile_flow
t38	0.003	1	tile_flow
t39	0.016	1	tile_flow
t40	0.128	1	tile_flow
t41	0.1	1	tile_flow
t42	0.063	1	tile_flow
t43	0.043	1	tile_flow
t44	0.047	1	tile_flow
t45	0.031	1	tile_flow
t46	0.017	1	tile_flow
t47	0.02	1	tile_flow
t48	0.021	1	tile_flow
t49	0.004	1	tile_flow
t50	0	1	tile_flow
t51	0.051	1	tile_flow
t52	0.041	1	tile_flow
t53	0.049	1	tile_flow
t54	0.037	1	tile_flow
t55	0.046	1	tile_flow
t56	0.006	1	tile_flow
t57	0	1	tile_flow
t58	0.035	1	tile_flow
t59	0.352	1	tile_flow
t60	0.224	1	tile_flow
t61	0.104	1	tile_flow
t62	0.059	1	tile_flow
t63	0.077	1	tile_flow
t64	0.18	1	tile_flow
t65	0.457	1	tile_flow
t66	0.177	1	tile_flow
t67	0.23	1	tile_flow
t68	0.154	1	tile_flow
t69	0.285	1	tile_flow
t70	0.261	1	tile_flow
t71	0.78	1	tile_flow
t72	0.512	1	tile_flow
t73	0.737	1	tile_flow
t74	0.246	1	tile_flow
t75	0.082	1	tile_flow
t76	0.009	1	tile_flow
t77	0	1	tile_flow
t78	0.002	1	tile_flow
t79	0.003	1	tile_flow
t80	0.023	1	tile_flow
t81	0.227	1	tile_flow
t82	0.18	1	tile_flow
t83	0.046	1	tile_flow
t84	0.087	1	tile_flow
t85	0.216	1	tile_flow
t86	0.101	1	tile_flow
t87	0.009	1	tile_flow
t88	0.014	1	tile_flow
t89	0.006	1	tile_flow
t90	0.061	1	tile_flow
t91	0.108	1	tile_flow
t92	0.029	1	tile_flow
t93	0.017	1	tile_flow
t94	0.044	1	tile_flow
t95	0.133	1	tile_flow
t96	0.09	1	tile_flow
t97	0.039	1	tile_flow
t98	0.414	1	tile_flow
t99	0.33	1	tile_flow
t100	0.157	1	tile_flow
t101	0.025	1	tile_flow
t102	0.003	1	tile_flow
t103	0.001	1	tile_flow
t104	0	1	tile_flow
t105	0	1	tile_flow
t106	0.011	1	tile_flow
* model command line
rzwqmb.bat
* model input/output
par2par_rzdat.tpl   par2par_rzdat.in
hyd.ins    comp2exp.OUT
* prior information
                           


































