pcf
* control data
restart  estimation
     300    1240       1       0       2
    1     291 single  point  1   0   0
 10.0  2.0  0.3  0.03  10  999
 10.0  10.0  0.001
 0.1  noaui
 -1  0.005  4  4  0.005  4
 1  1  1
* parameter groups
 k     relative    0.01  0.0  switch  2.0 parabolic
* parameter data
kx1   log   factor   1.00  1.00E-10   1.00E10  k   1   0   1
kx2   log   factor   1.00  1.00E-10   1.00E10  k   1   0   1
kx3   log   factor   1.00  1.00E-10   1.00E10  k   1   0   1
kx4   log   factor   1.00  1.00E-10   1.00E10  k   1   0   1
kx5   log   factor   1.00  1.00E-10   1.00E10  k   1   0   1
kx6   log   factor   1.00  1.00E-10   1.00E10  k   1   0   1
kx7   log   factor   1.00  1.00E-10   1.00E10  k   1   0   1
kx8   log   factor   1.00  1.00E-10   1.00E10  k   1   0   1
kx9   log   factor   1.00  1.00E-10   1.00E10  k   1   0   1
kx10   log   factor   1.00  1.00E-10   1.00E10  k   1   0   1
kx11   log   factor   1.00  1.00E-10   1.00E10  k   1   0   1
kx12   log   factor   1.00  1.00E-10   1.00E10  k   1   0   1
kx13   log   factor   1.00  1.00E-10   1.00E10  k   1   0   1
kx14   log   factor   1.00  1.00E-10   1.00E10  k   1   0   1
kx15   log   factor   1.00  1.00E-10   1.00E10  k   1   0   1
kx16   log   factor   1.00  1.00E-10   1.00E10  k   1   0   1
kx17   log   factor   1.00  1.00E-10   1.00E10  k   1   0   1
kx18   log   factor   1.00  1.00E-10   1.00E10  k   1   0   1
kx19   log   factor   1.00  1.00E-10   1.00E10  k   1   0   1
kx20   log   factor   1.00  1.00E-10   1.00E10  k   1   0   1
kx21   log   factor   1.00  1.00E-10   1.00E10  k   1   0   1
kx22   log   factor   1.00  1.00E-10   1.00E10  k   1   0   1
kx23   log   factor   1.00  1.00E-10   1.00E10  k   1   0   1
kx24   log   factor   1.00  1.00E-10   1.00E10  k   1   0   1
kx25   log   factor   1.00  1.00E-10   1.00E10  k   1   0   1
kx26   log   factor   1.00  1.00E-10   1.00E10  k   1   0   1
kx27   log   factor   1.00  1.00E-10   1.00E10  k   1   0   1
kx28   log   factor   1.00  1.00E-10   1.00E10  k   1   0   1
kx29   log   factor   1.00  1.00E-10   1.00E10  k   1   0   1
kx30   log   factor   1.00  1.00E-10   1.00E10  k   1   0   1
kx31   log   factor   1.00  1.00E-10   1.00E10  k   1   0   1
kx32   log   factor   1.00  1.00E-10   1.00E10  k   1   0   1
kx33   log   factor   1.00  1.00E-10   1.00E10  k   1   0   1
kx34   log   factor   1.00  1.00E-10   1.00E10  k   1   0   1
kx35   log   factor   1.00  1.00E-10   1.00E10  k   1   0   1
kx36   log   factor   1.00  1.00E-10   1.00E10  k   1   0   1
kx37   log   factor   1.00  1.00E-10   1.00E10  k   1   0   1
kx38   log   factor   1.00  1.00E-10   1.00E10  k   1   0   1
kx39   log   factor   1.00  1.00E-10   1.00E10  k   1   0   1
kx40   log   factor   1.00  1.00E-10   1.00E10  k   1   0   1
kx41   log   factor   1.00  1.00E-10   1.00E10  k   1   0   1
kx42   log   factor   1.00  1.00E-10   1.00E10  k   1   0   1
kx43   log   factor   1.00  1.00E-10   1.00E10  k   1   0   1
kx44   log   factor   1.00  1.00E-10   1.00E10  k   1   0   1
kx45   log   factor   1.00  1.00E-10   1.00E10  k   1   0   1
kx46   log   factor   1.00  1.00E-10   1.00E10  k   1   0   1
kx47   log   factor   1.00  1.00E-10   1.00E10  k   1   0   1
kx48   log   factor   1.00  1.00E-10   1.00E10  k   1   0   1
kx49   log   factor   1.00  1.00E-10   1.00E10  k   1   0   1
kx50   log   factor   1.00  1.00E-10   1.00E10  k   1   0   1
kx51   log   factor   1.00  1.00E-10   1.00E10  k   1   0   1
kx52   log   factor   1.00  1.00E-10   1.00E10  k   1   0   1
kx53   log   factor   1.00  1.00E-10   1.00E10  k   1   0   1
kx54   log   factor   1.00  1.00E-10   1.00E10  k   1   0   1
kx55   log   factor   1.00  1.00E-10   1.00E10  k   1   0   1
kx56   log   factor   1.00  1.00E-10   1.00E10  k   1   0   1
kx57   log   factor   1.00  1.00E-10   1.00E10  k   1   0   1
kx58   log   factor   1.00  1.00E-10   1.00E10  k   1   0   1
kx59   log   factor   1.00  1.00E-10   1.00E10  k   1   0   1
kx60   log   factor   1.00  1.00E-10   1.00E10  k   1   0   1
kx61   log   factor   1.00  1.00E-10   1.00E10  k   1   0   1
kx62   log   factor   1.00  1.00E-10   1.00E10  k   1   0   1
kx63   log   factor   1.00  1.00E-10   1.00E10  k   1   0   1
kx64   log   factor   1.00  1.00E-10   1.00E10  k   1   0   1
kx65   log   factor   1.00  1.00E-10   1.00E10  k   1   0   1
kx66   log   factor   1.00  1.00E-10   1.00E10  k   1   0   1
kx67   log   factor   1.00  1.00E-10   1.00E10  k   1   0   1
kx68   log   factor   1.00  1.00E-10   1.00E10  k   1   0   1
kx69   log   factor   1.00  1.00E-10   1.00E10  k   1   0   1
kx70   log   factor   1.00  1.00E-10   1.00E10  k   1   0   1
kx71   log   factor   1.00  1.00E-10   1.00E10  k   1   0   1
kx72   log   factor   1.00  1.00E-10   1.00E10  k   1   0   1
kx73   log   factor   1.00  1.00E-10   1.00E10  k   1   0   1
kx74   log   factor   1.00  1.00E-10   1.00E10  k   1   0   1
kx75   log   factor   1.00  1.00E-10   1.00E10  k   1   0   1
kx76   log   factor   1.00  1.00E-10   1.00E10  k   1   0   1
kx77   log   factor   1.00  1.00E-10   1.00E10  k   1   0   1
kx78   log   factor   1.00  1.00E-10   1.00E10  k   1   0   1
kx79   log   factor   1.00  1.00E-10   1.00E10  k   1   0   1
kx80   log   factor   1.00  1.00E-10   1.00E10  k   1   0   1
kx81   log   factor   1.00  1.00E-10   1.00E10  k   1   0   1
kx82   log   factor   1.00  1.00E-10   1.00E10  k   1   0   1
kx83   log   factor   1.00  1.00E-10   1.00E10  k   1   0   1
kx84   log   factor   1.00  1.00E-10   1.00E10  k   1   0   1
kx85   log   factor   1.00  1.00E-10   1.00E10  k   1   0   1
kx86   log   factor   1.00  1.00E-10   1.00E10  k   1   0   1
kx87   log   factor   1.00  1.00E-10   1.00E10  k   1   0   1
kx88   log   factor   1.00  1.00E-10   1.00E10  k   1   0   1
kx89   log   factor   1.00  1.00E-10   1.00E10  k   1   0   1
kx90   log   factor   1.00  1.00E-10   1.00E10  k   1   0   1
kx91   log   factor   1.00  1.00E-10   1.00E10  k   1   0   1
kx92   log   factor   1.00  1.00E-10   1.00E10  k   1   0   1
kx93   log   factor   1.00  1.00E-10   1.00E10  k   1   0   1
kx94   log   factor   1.00  1.00E-10   1.00E10  k   1   0   1
kx95   log   factor   1.00  1.00E-10   1.00E10  k   1   0   1
kx96   log   factor   1.00  1.00E-10   1.00E10  k   1   0   1
kx97   log   factor   1.00  1.00E-10   1.00E10  k   1   0   1
kx98   log   factor   1.00  1.00E-10   1.00E10  k   1   0   1
kx99   log   factor   1.00  1.00E-10   1.00E10  k   1   0   1
kx100   log   factor   1.00  1.00E-10   1.00E10  k   1   0   1
kx101   log   factor   1.00  1.00E-10   1.00E10  k   1   0   1
kx102   log   factor   1.00  1.00E-10   1.00E10  k   1   0   1
kx103   log   factor   1.00  1.00E-10   1.00E10  k   1   0   1
kx104   log   factor   1.00  1.00E-10   1.00E10  k   1   0   1
kx105   log   factor   1.00  1.00E-10   1.00E10  k   1   0   1
kx106   log   factor   1.00  1.00E-10   1.00E10  k   1   0   1
kx107   log   factor   1.00  1.00E-10   1.00E10  k   1   0   1
kx108   log   factor   1.00  1.00E-10   1.00E10  k   1   0   1
kx109   log   factor   1.00  1.00E-10   1.00E10  k   1   0   1
kx110   log   factor   1.00  1.00E-10   1.00E10  k   1   0   1
kx111   log   factor   1.00  1.00E-10   1.00E10  k   1   0   1
kx112   log   factor   1.00  1.00E-10   1.00E10  k   1   0   1
kx113   log   factor   1.00  1.00E-10   1.00E10  k   1   0   1
kx114   log   factor   1.00  1.00E-10   1.00E10  k   1   0   1
kx115   log   factor   1.00  1.00E-10   1.00E10  k   1   0   1
kx116   log   factor   1.00  1.00E-10   1.00E10  k   1   0   1
kx117   log   factor   1.00  1.00E-10   1.00E10  k   1   0   1
kx118   log   factor   1.00  1.00E-10   1.00E10  k   1   0   1
kx119   log   factor   1.00  1.00E-10   1.00E10  k   1   0   1
kx120   log   factor   1.00  1.00E-10   1.00E10  k   1   0   1
kx121   log   factor   1.00  1.00E-10   1.00E10  k   1   0   1
kx122   log   factor   1.00  1.00E-10   1.00E10  k   1   0   1
kx123   log   factor   1.00  1.00E-10   1.00E10  k   1   0   1
kx124   log   factor   1.00  1.00E-10   1.00E10  k   1   0   1
kx125   log   factor   1.00  1.00E-10   1.00E10  k   1   0   1
kx126   log   factor   1.00  1.00E-10   1.00E10  k   1   0   1
kx127   log   factor   1.00  1.00E-10   1.00E10  k   1   0   1
kx128   log   factor   1.00  1.00E-10   1.00E10  k   1   0   1
kx129   log   factor   1.00  1.00E-10   1.00E10  k   1   0   1
kx130   log   factor   1.00  1.00E-10   1.00E10  k   1   0   1
kx131   log   factor   1.00  1.00E-10   1.00E10  k   1   0   1
kx132   log   factor   1.00  1.00E-10   1.00E10  k   1   0   1
kx133   log   factor   1.00  1.00E-10   1.00E10  k   1   0   1
kx134   log   factor   1.00  1.00E-10   1.00E10  k   1   0   1
kx135   log   factor   1.00  1.00E-10   1.00E10  k   1   0   1
kx136   log   factor   1.00  1.00E-10   1.00E10  k   1   0   1
kx137   log   factor   1.00  1.00E-10   1.00E10  k   1   0   1
kx138   log   factor   1.00  1.00E-10   1.00E10  k   1   0   1
kx139   log   factor   1.00  1.00E-10   1.00E10  k   1   0   1
kx140   log   factor   1.00  1.00E-10   1.00E10  k   1   0   1
kx141   log   factor   1.00  1.00E-10   1.00E10  k   1   0   1
kx142   log   factor   1.00  1.00E-10   1.00E10  k   1   0   1
kx143   log   factor   1.00  1.00E-10   1.00E10  k   1   0   1
kx144   log   factor   1.00  1.00E-10   1.00E10  k   1   0   1
kx145   log   factor   1.00  1.00E-10   1.00E10  k   1   0   1
kx146   log   factor   1.00  1.00E-10   1.00E10  k   1   0   1
kx147   log   factor   1.00  1.00E-10   1.00E10  k   1   0   1
kx148   log   factor   1.00  1.00E-10   1.00E10  k   1   0   1
kx149   log   factor   1.00  1.00E-10   1.00E10  k   1   0   1
kx150   log   factor   1.00  1.00E-10   1.00E10  k   1   0   1
kz1   log   factor   1.00  1.00E-10   1.00E10  k   1   0   1
kz2   log   factor   1.00  1.00E-10   1.00E10  k   1   0   1
kz3   log   factor   1.00  1.00E-10   1.00E10  k   1   0   1
kz4   log   factor   1.00  1.00E-10   1.00E10  k   1   0   1
kz5   log   factor   1.00  1.00E-10   1.00E10  k   1   0   1
kz6   log   factor   1.00  1.00E-10   1.00E10  k   1   0   1
kz7   log   factor   1.00  1.00E-10   1.00E10  k   1   0   1
kz8   log   factor   1.00  1.00E-10   1.00E10  k   1   0   1
kz9   log   factor   1.00  1.00E-10   1.00E10  k   1   0   1
kz10   log   factor   1.00  1.00E-10   1.00E10  k   1   0   1
kz11   log   factor   1.00  1.00E-10   1.00E10  k   1   0   1
kz12   log   factor   1.00  1.00E-10   1.00E10  k   1   0   1
kz13   log   factor   1.00  1.00E-10   1.00E10  k   1   0   1
kz14   log   factor   1.00  1.00E-10   1.00E10  k   1   0   1
kz15   log   factor   1.00  1.00E-10   1.00E10  k   1   0   1
kz16   log   factor   1.00  1.00E-10   1.00E10  k   1   0   1
kz17   log   factor   1.00  1.00E-10   1.00E10  k   1   0   1
kz18   log   factor   1.00  1.00E-10   1.00E10  k   1   0   1
kz19   log   factor   1.00  1.00E-10   1.00E10  k   1   0   1
kz20   log   factor   1.00  1.00E-10   1.00E10  k   1   0   1
kz21   log   factor   1.00  1.00E-10   1.00E10  k   1   0   1
kz22   log   factor   1.00  1.00E-10   1.00E10  k   1   0   1
kz23   log   factor   1.00  1.00E-10   1.00E10  k   1   0   1
kz24   log   factor   1.00  1.00E-10   1.00E10  k   1   0   1
kz25   log   factor   1.00  1.00E-10   1.00E10  k   1   0   1
kz26   log   factor   1.00  1.00E-10   1.00E10  k   1   0   1
kz27   log   factor   1.00  1.00E-10   1.00E10  k   1   0   1
kz28   log   factor   1.00  1.00E-10   1.00E10  k   1   0   1
kz29   log   factor   1.00  1.00E-10   1.00E10  k   1   0   1
kz30   log   factor   1.00  1.00E-10   1.00E10  k   1   0   1
kz31   log   factor   1.00  1.00E-10   1.00E10  k   1   0   1
kz32   log   factor   1.00  1.00E-10   1.00E10  k   1   0   1
kz33   log   factor   1.00  1.00E-10   1.00E10  k   1   0   1
kz34   log   factor   1.00  1.00E-10   1.00E10  k   1   0   1
kz35   log   factor   1.00  1.00E-10   1.00E10  k   1   0   1
kz36   log   factor   1.00  1.00E-10   1.00E10  k   1   0   1
kz37   log   factor   1.00  1.00E-10   1.00E10  k   1   0   1
kz38   log   factor   1.00  1.00E-10   1.00E10  k   1   0   1
kz39   log   factor   1.00  1.00E-10   1.00E10  k   1   0   1
kz40   log   factor   1.00  1.00E-10   1.00E10  k   1   0   1
kz41   log   factor   1.00  1.00E-10   1.00E10  k   1   0   1
kz42   log   factor   1.00  1.00E-10   1.00E10  k   1   0   1
kz43   log   factor   1.00  1.00E-10   1.00E10  k   1   0   1
kz44   log   factor   1.00  1.00E-10   1.00E10  k   1   0   1
kz45   log   factor   1.00  1.00E-10   1.00E10  k   1   0   1
kz46   log   factor   1.00  1.00E-10   1.00E10  k   1   0   1
kz47   log   factor   1.00  1.00E-10   1.00E10  k   1   0   1
kz48   log   factor   1.00  1.00E-10   1.00E10  k   1   0   1
kz49   log   factor   1.00  1.00E-10   1.00E10  k   1   0   1
kz50   log   factor   1.00  1.00E-10   1.00E10  k   1   0   1
kz51   log   factor   1.00  1.00E-10   1.00E10  k   1   0   1
kz52   log   factor   1.00  1.00E-10   1.00E10  k   1   0   1
kz53   log   factor   1.00  1.00E-10   1.00E10  k   1   0   1
kz54   log   factor   1.00  1.00E-10   1.00E10  k   1   0   1
kz55   log   factor   1.00  1.00E-10   1.00E10  k   1   0   1
kz56   log   factor   1.00  1.00E-10   1.00E10  k   1   0   1
kz57   log   factor   1.00  1.00E-10   1.00E10  k   1   0   1
kz58   log   factor   1.00  1.00E-10   1.00E10  k   1   0   1
kz59   log   factor   1.00  1.00E-10   1.00E10  k   1   0   1
kz60   log   factor   1.00  1.00E-10   1.00E10  k   1   0   1
kz61   log   factor   1.00  1.00E-10   1.00E10  k   1   0   1
kz62   log   factor   1.00  1.00E-10   1.00E10  k   1   0   1
kz63   log   factor   1.00  1.00E-10   1.00E10  k   1   0   1
kz64   log   factor   1.00  1.00E-10   1.00E10  k   1   0   1
kz65   log   factor   1.00  1.00E-10   1.00E10  k   1   0   1
kz66   log   factor   1.00  1.00E-10   1.00E10  k   1   0   1
kz67   log   factor   1.00  1.00E-10   1.00E10  k   1   0   1
kz68   log   factor   1.00  1.00E-10   1.00E10  k   1   0   1
kz69   log   factor   1.00  1.00E-10   1.00E10  k   1   0   1
kz70   log   factor   1.00  1.00E-10   1.00E10  k   1   0   1
kz71   log   factor   1.00  1.00E-10   1.00E10  k   1   0   1
kz72   log   factor   1.00  1.00E-10   1.00E10  k   1   0   1
kz73   log   factor   1.00  1.00E-10   1.00E10  k   1   0   1
kz74   log   factor   1.00  1.00E-10   1.00E10  k   1   0   1
kz75   log   factor   1.00  1.00E-10   1.00E10  k   1   0   1
kz76   log   factor   1.00  1.00E-10   1.00E10  k   1   0   1
kz77   log   factor   1.00  1.00E-10   1.00E10  k   1   0   1
kz78   log   factor   1.00  1.00E-10   1.00E10  k   1   0   1
kz79   log   factor   1.00  1.00E-10   1.00E10  k   1   0   1
kz80   log   factor   1.00  1.00E-10   1.00E10  k   1   0   1
kz81   log   factor   1.00  1.00E-10   1.00E10  k   1   0   1
kz82   log   factor   1.00  1.00E-10   1.00E10  k   1   0   1
kz83   log   factor   1.00  1.00E-10   1.00E10  k   1   0   1
kz84   log   factor   1.00  1.00E-10   1.00E10  k   1   0   1
kz85   log   factor   1.00  1.00E-10   1.00E10  k   1   0   1
kz86   log   factor   1.00  1.00E-10   1.00E10  k   1   0   1
kz87   log   factor   1.00  1.00E-10   1.00E10  k   1   0   1
kz88   log   factor   1.00  1.00E-10   1.00E10  k   1   0   1
kz89   log   factor   1.00  1.00E-10   1.00E10  k   1   0   1
kz90   log   factor   1.00  1.00E-10   1.00E10  k   1   0   1
kz91   log   factor   1.00  1.00E-10   1.00E10  k   1   0   1
kz92   log   factor   1.00  1.00E-10   1.00E10  k   1   0   1
kz93   log   factor   1.00  1.00E-10   1.00E10  k   1   0   1
kz94   log   factor   1.00  1.00E-10   1.00E10  k   1   0   1
kz95   log   factor   1.00  1.00E-10   1.00E10  k   1   0   1
kz96   log   factor   1.00  1.00E-10   1.00E10  k   1   0   1
kz97   log   factor   1.00  1.00E-10   1.00E10  k   1   0   1
kz98   log   factor   1.00  1.00E-10   1.00E10  k   1   0   1
kz99   log   factor   1.00  1.00E-10   1.00E10  k   1   0   1
kz100   log   factor   1.00  1.00E-10   1.00E10  k   1   0   1
kz101   log   factor   1.00  1.00E-10   1.00E10  k   1   0   1
kz102   log   factor   1.00  1.00E-10   1.00E10  k   1   0   1
kz103   log   factor   1.00  1.00E-10   1.00E10  k   1   0   1
kz104   log   factor   1.00  1.00E-10   1.00E10  k   1   0   1
kz105   log   factor   1.00  1.00E-10   1.00E10  k   1   0   1
kz106   log   factor   1.00  1.00E-10   1.00E10  k   1   0   1
kz107   log   factor   1.00  1.00E-10   1.00E10  k   1   0   1
kz108   log   factor   1.00  1.00E-10   1.00E10  k   1   0   1
kz109   log   factor   1.00  1.00E-10   1.00E10  k   1   0   1
kz110   log   factor   1.00  1.00E-10   1.00E10  k   1   0   1
kz111   log   factor   1.00  1.00E-10   1.00E10  k   1   0   1
kz112   log   factor   1.00  1.00E-10   1.00E10  k   1   0   1
kz113   log   factor   1.00  1.00E-10   1.00E10  k   1   0   1
kz114   log   factor   1.00  1.00E-10   1.00E10  k   1   0   1
kz115   log   factor   1.00  1.00E-10   1.00E10  k   1   0   1
kz116   log   factor   1.00  1.00E-10   1.00E10  k   1   0   1
kz117   log   factor   1.00  1.00E-10   1.00E10  k   1   0   1
kz118   log   factor   1.00  1.00E-10   1.00E10  k   1   0   1
kz119   log   factor   1.00  1.00E-10   1.00E10  k   1   0   1
kz120   log   factor   1.00  1.00E-10   1.00E10  k   1   0   1
kz121   log   factor   1.00  1.00E-10   1.00E10  k   1   0   1
kz122   log   factor   1.00  1.00E-10   1.00E10  k   1   0   1
kz123   log   factor   1.00  1.00E-10   1.00E10  k   1   0   1
kz124   log   factor   1.00  1.00E-10   1.00E10  k   1   0   1
kz125   log   factor   1.00  1.00E-10   1.00E10  k   1   0   1
kz126   log   factor   1.00  1.00E-10   1.00E10  k   1   0   1
kz127   log   factor   1.00  1.00E-10   1.00E10  k   1   0   1
kz128   log   factor   1.00  1.00E-10   1.00E10  k   1   0   1
kz129   log   factor   1.00  1.00E-10   1.00E10  k   1   0   1
kz130   log   factor   1.00  1.00E-10   1.00E10  k   1   0   1
kz131   log   factor   1.00  1.00E-10   1.00E10  k   1   0   1
kz132   log   factor   1.00  1.00E-10   1.00E10  k   1   0   1
kz133   log   factor   1.00  1.00E-10   1.00E10  k   1   0   1
kz134   log   factor   1.00  1.00E-10   1.00E10  k   1   0   1
kz135   log   factor   1.00  1.00E-10   1.00E10  k   1   0   1
kz136   log   factor   1.00  1.00E-10   1.00E10  k   1   0   1
kz137   log   factor   1.00  1.00E-10   1.00E10  k   1   0   1
kz138   log   factor   1.00  1.00E-10   1.00E10  k   1   0   1
kz139   log   factor   1.00  1.00E-10   1.00E10  k   1   0   1
kz140   log   factor   1.00  1.00E-10   1.00E10  k   1   0   1
kz141   log   factor   1.00  1.00E-10   1.00E10  k   1   0   1
kz142   log   factor   1.00  1.00E-10   1.00E10  k   1   0   1
kz143   log   factor   1.00  1.00E-10   1.00E10  k   1   0   1
kz144   log   factor   1.00  1.00E-10   1.00E10  k   1   0   1
kz145   log   factor   1.00  1.00E-10   1.00E10  k   1   0   1
kz146   log   factor   1.00  1.00E-10   1.00E10  k   1   0   1
kz147   log   factor   1.00  1.00E-10   1.00E10  k   1   0   1
kz148   log   factor   1.00  1.00E-10   1.00E10  k   1   0   1
kz149   log   factor   1.00  1.00E-10   1.00E10  k   1   0   1
kz150   log   factor   1.00  1.00E-10   1.00E10  k   1   0   1
* observation groups
 heads
 flux
* observation data
h11_6_6_1     744.4934     0.2     heads
h11_6_43_1     748.5685     0.2     heads
h11_6_80_1     737.4401     0.2     heads
h11_6_117_1     715.8053     0.2     heads
h11_6_154_1     713.3826     0.2     heads
h11_6_190_1     703.6848     0.2     heads
h11_6_227_1     692.5455     0.2     heads
h11_6_264_1     704.183     0.2     heads
h11_6_301_1     708.1331     0.2     heads
h11_6_338_1     718.4268     0.2     heads
h11_43_6_1     745.2679     0.2     heads
h11_43_43_1     735.5642     0.2     heads
h11_43_80_1     724.6735     0.2     heads
h11_43_117_1     706.4154     0.2     heads
h11_43_154_1     703.8354     0.2     heads
h11_70_204_1     704.5313     0.2     heads
h11_70_209_1     704.6324     0.2     heads
h11_70_214_1     704.6697     0.2     heads
h11_70_219_1     704.6368     0.2     heads
h11_70_224_1     704.5486     0.2     heads
h11_70_229_1     704.4075     0.2     heads
h11_70_234_1     704.2142     0.2     heads
h11_70_239_1     703.9691     0.2     heads
h11_70_244_1     703.6721     0.2     heads
h11_70_249_1     703.3249     0.2     heads
h11_70_254_1     702.9274     0.2     heads
h11_70_259_1     702.4717     0.2     heads
h11_70_264_1     701.9232     0.2     heads
h11_70_269_1     701.1482     0.2     heads
h11_70_274_1     699.5253     0.2     heads
h11_70_279_1     692.8729     0.2     heads
h11_70_283_1     701.9288     0.2     heads
h11_70_288_1     710.3862     0.2     heads
h11_70_293_1     714.6509     0.2     heads
h11_70_298_1     717.3972     0.2     heads
h11_75_204_1     706.8514     0.2     heads
h11_75_209_1     706.9983     0.2     heads
h11_75_214_1     707.0968     0.2     heads
h11_75_219_1     707.1293     0.2     heads
h11_75_224_1     707.1198     0.2     heads
h11_75_229_1     707.0789     0.2     heads
h11_75_234_1     707.0164     0.2     heads
h11_75_239_1     706.9449     0.2     heads
h11_75_244_1     706.8801     0.2     heads
h11_75_249_1     706.8414     0.2     heads
h11_75_254_1     706.8488     0.2     heads
h11_75_259_1     706.9154     0.2     heads
h11_75_264_1     707.022     0.2     heads
h11_75_269_1     707.0192     0.2     heads
h11_75_274_1     706.1958     0.2     heads
h11_75_279_1     699.0404     0.2     heads
h11_75_283_1     703.9592     0.2     heads
h11_75_288_1     712.6714     0.2     heads
h11_75_293_1     716.5837     0.2     heads
h11_75_298_1     719.1469     0.2     heads
h11_80_6_1     717.2888     0.2     heads
h11_80_43_1     705.4453     0.2     heads
h11_80_80_1     706.6238     0.2     heads
h11_80_117_1     709.5612     0.2     heads
h11_80_154_1     701.74     0.2     heads
h11_80_204_1     708.2926     0.2     heads
h11_80_209_1     708.4857     0.2     heads
h11_80_214_1     708.6442     0.2     heads
h11_80_219_1     708.7427     0.2     heads
h11_80_224_1     708.8041     0.2     heads
h11_80_229_1     708.8434     0.2     heads
h11_80_234_1     708.878     0.2     heads
h11_80_239_1     708.9314     0.2     heads
h11_80_244_1     709.0344     0.2     heads
h11_80_249_1     709.2231     0.2     heads
h11_80_254_1     709.5354     0.2     heads
h11_80_259_1     710.0051     0.2     heads
h11_80_264_1     710.6509     0.2     heads
h11_80_269_1     711.4592     0.2     heads
h11_80_274_1     712.4451     0.2     heads
h11_80_279_1     712.4485     0.2     heads
h11_80_283_1     712.9514     0.2     heads
h11_80_288_1     716.0748     0.2     heads
h11_80_293_1     718.7725     0.2     heads
h11_80_298_1     720.9236     0.2     heads
h11_85_204_1     709.116     0.2     heads
h11_85_209_1     709.3893     0.2     heads
h11_85_214_1     709.6341     0.2     heads
h11_85_219_1     709.8115     0.2     heads
h11_85_224_1     709.9437     0.2     heads
h11_85_229_1     710.0492     0.2     heads
h11_85_234_1     710.1525     0.2     heads
h11_85_239_1     710.2894     0.2     heads
h11_85_244_1     710.5071     0.2     heads
h11_85_249_1     710.863     0.2     heads
h11_85_254_1     711.4179     0.2     heads
h11_85_259_1     712.2334     0.2     heads
h11_85_264_1     713.3737     0.2     heads
h11_85_269_1     714.9252     0.2     heads
h11_85_274_1     717.1002     0.2     heads
h11_85_279_1     717.2214     0.2     heads
h11_85_283_1     717.5323     0.2     heads
h11_85_288_1     719.0174     0.2     heads
h11_85_293_1     720.8382     0.2     heads
h11_85_298_1     722.5993     0.2     heads
h11_90_204_1     709.3959     0.2     heads
h11_90_209_1     709.8138     0.2     heads
h11_90_214_1     710.1973     0.2     heads
h11_90_219_1     710.4824     0.2     heads
h11_90_224_1     710.6931     0.2     heads
h11_90_229_1     710.8528     0.2     heads
h11_90_234_1     710.995     0.2     heads
h11_90_239_1     711.1688     0.2     heads
h11_90_244_1     711.4437     0.2     heads
h11_90_249_1     711.9072     0.2     heads
h11_90_254_1     712.6552     0.2     heads
h11_90_259_1     713.7856     0.2     heads
h11_90_264_1     715.4099     0.2     heads
h11_90_269_1     717.6843     0.2     heads
h11_90_274_1     719.4329     0.2     heads
h11_90_279_1     719.3721     0.2     heads
h11_90_283_1     719.9175     0.2     heads
h11_90_288_1     721.1003     0.2     heads
h11_90_293_1     722.5598     0.2     heads
h11_90_298_1     724.0825     0.2     heads
h11_95_204_1     709.0754     0.2     heads
h11_95_209_1     709.7623     0.2     heads
h11_95_214_1     710.3818     0.2     heads
h11_95_219_1     710.8284     0.2     heads
h11_95_224_1     711.1371     0.2     heads
h11_95_229_1     711.3422     0.2     heads
h11_95_234_1     711.4883     0.2     heads
h11_95_239_1     711.6411     0.2     heads
h11_95_244_1     711.8982     0.2     heads
h11_95_249_1     712.3944     0.2     heads
h11_95_254_1     713.2858     0.2     heads
h11_95_259_1     714.7207     0.2     heads
h11_95_264_1     716.8432     0.2     heads
h11_95_269_1     720.0659     0.2     heads
h11_95_274_1     720.0928     0.2     heads
h11_95_279_1     720.6285     0.2     heads
h11_95_283_1     721.3922     0.2     heads
h11_95_288_1     722.5868     0.2     heads
h11_95_293_1     723.9408     0.2     heads
h11_95_298_1     725.3516     0.2     heads
h11_100_204_1     707.9391     0.2     heads
h11_100_209_1     709.1536     0.2     heads
h11_100_214_1     710.1899     0.2     heads
h11_100_219_1     710.8966     0.2     heads
h11_100_224_1     711.3414     0.2     heads
h11_100_229_1     711.5875     0.2     heads
h11_100_234_1     711.6987     0.2     heads
h11_100_239_1     711.756     0.2     heads
h11_100_244_1     711.8887     0.2     heads
h11_100_249_1     712.3049     0.2     heads
h11_100_254_1     713.276     0.2     heads
h11_100_259_1     715.0458     0.2     heads
h11_100_264_1     717.7338     0.2     heads
h11_100_269_1     720.264     0.2     heads
h11_100_274_1     720.4901     0.2     heads
h11_100_279_1     721.4313     0.2     heads
h11_100_283_1     722.4023     0.2     heads
h11_100_288_1     723.6994     0.2     heads
h11_100_293_1     725.0562     0.2     heads
h11_100_298_1     726.4294     0.2     heads
h11_105_204_1     705.5876     0.2     heads
h11_105_209_1     707.7844     0.2     heads
h11_105_214_1     709.5909     0.2     heads
h11_105_219_1     710.7372     0.2     heads
h11_105_224_1     711.378     0.2     heads
h11_105_229_1     711.6674     0.2     heads
h11_105_234_1     711.707     0.2     heads
h11_105_239_1     711.5839     0.2     heads
h11_105_244_1     711.4432     0.2     heads
h11_105_249_1     711.5886     0.2     heads
h11_105_254_1     712.5255     0.2     heads
h11_105_259_1     714.7298     0.2     heads
h11_105_264_1     718.3823     0.2     heads
h11_105_269_1     719.5489     0.2     heads
h11_105_274_1     720.5891     0.2     heads
h11_105_279_1     721.9592     0.2     heads
h11_105_283_1     723.1431     0.2     heads
h11_105_288_1     724.5754     0.2     heads
h11_105_293_1     725.9792     0.2     heads
h11_105_298_1     727.3519     0.2     heads
h11_110_204_1     701.2708     0.2     heads
h11_110_209_1     704.9901     0.2     heads
h11_110_214_1     708.5825     0.2     heads
h11_110_219_1     710.4542     0.2     heads
h11_110_224_1     711.3432     0.2     heads
h11_110_229_1     711.6805     0.2     heads
h11_110_234_1     711.6317     0.2     heads
h11_110_239_1     711.2662     0.2     heads
h11_110_244_1     710.6862     0.2     heads
h11_110_249_1     710.2459     0.2     heads
h11_110_254_1     710.8885     0.2     heads
h11_110_259_1     713.6978     0.2     heads
h11_110_264_1     717.5493     0.2     heads
h11_110_269_1     718.8039     0.2     heads
h11_110_274_1     720.5615     0.2     heads
h11_110_279_1     722.3499     0.2     heads
h11_110_283_1     723.7389     0.2     heads
h11_110_288_1     725.3081     0.2     heads
h11_110_293_1     726.7704     0.2     heads
h11_110_298_1     728.1557     0.2     heads
h11_115_204_1     703.017     0.2     heads
h11_115_209_1     700.8775     0.2     heads
h11_115_214_1     707.7409     0.2     heads
h11_115_219_1     710.2666     0.2     heads
h11_115_224_1     711.348     0.2     heads
h11_115_229_1     711.7326     0.2     heads
h11_115_234_1     711.6254     0.2     heads
h11_115_239_1     711.0536     0.2     heads
h11_115_244_1     710.0025     0.2     heads
h11_115_249_1     708.6572     0.2     heads
h11_115_254_1     708.3939     0.2     heads
h11_115_259_1     712.3493     0.2     heads
h11_115_264_1     715.8444     0.2     heads
h11_115_269_1     718.2355     0.2     heads
h11_115_274_1     720.6102     0.2     heads
h11_115_279_1     722.7353     0.2     heads
h11_115_283_1     724.2874     0.2     heads
h11_115_288_1     725.9669     0.2     heads
h11_115_293_1     727.478     0.2     heads
h11_115_298_1     728.873     0.2     heads
h11_117_6_1     687.355     0.2     heads
h11_117_43_1     675.1462     0.2     heads
h11_117_80_1     677.0795     0.2     heads
h11_117_117_1     709.098     0.2     heads
h11_117_154_1     712.6563     0.2     heads
h11_120_204_1     700.8078     0.2     heads
h11_120_209_1     702.9955     0.2     heads
h11_120_214_1     708.002     0.2     heads
h11_120_219_1     710.3271     0.2     heads
h11_120_224_1     711.4492     0.2     heads
h11_120_229_1     711.8943     0.2     heads
h11_120_234_1     711.8225     0.2     heads
h11_120_239_1     711.2352     0.2     heads
h11_120_244_1     710.0623     0.2     heads
h11_120_249_1     708.3354     0.2     heads