pcf
* control data
restart  estimation
     3325    1018       5       0       2
    17     291 single  point  1   0   0
 10.0  2.0  0.3  0.03  10  999
 10.0  10.0  0.001
 0.1  noaui
 -1  0.005  4  4  0.005  4
 1  1  1
* parameter groups
 a     relative    0.01  0.0  switch  2.0 parabolic
 k     relative    0.01  0.0  switch  2.0 parabolic
 r     relative    0.01  0.0  switch  2.0 parabolic
 sfr   relative    0.01  0.0  switch  2.0 parabolic
 sth   relative    0.0025  0.0  switch  2.0 parabolic
* parameter data
     an1_p6_6     log     factor     1.00     1.00E-10     1.00E+10     a     1     0     1
     an1_p6_23     log     factor     1.00     1.00E-10     1.00E+10     a     1     0     1
     an1_p6_41     log     factor     1.00     1.00E-10     1.00E+10     a     1     0     1
     an1_p6_58     log     factor     1.00     1.00E-10     1.00E+10     a     1     0     1
     an1_p6_76     log     factor     1.00     1.00E-10     1.00E+10     a     1     0     1
     an1_p6_93     log     factor     1.00     1.00E-10     1.00E+10     a     1     0     1
     an1_p6_111     log     factor     1.00     1.00E-10     1.00E+10     a     1     0     1
     an1_p6_128     log     factor     1.00     1.00E-10     1.00E+10     a     1     0     1
     an1_p6_146     log     factor     1.00     1.00E-10     1.00E+10     a     1     0     1
     an1_p6_163     log     factor     1.00     1.00E-10     1.00E+10     a     1     0     1
     an1_p6_181     log     factor     1.00     1.00E-10     1.00E+10     a     1     0     1
     an1_p6_198     log     factor     1.00     1.00E-10     1.00E+10     a     1     0     1
     an1_p6_216     log     factor     1.00     1.00E-10     1.00E+10     a     1     0     1
     an1_p6_233     log     factor     1.00     1.00E-10     1.00E+10     a     1     0     1
     an1_p6_251     log     factor     1.00     1.00E-10     1.00E+10     a     1     0     1
     an1_p6_268     log     factor     1.00     1.00E-10     1.00E+10     a     1     0     1
     an1_p6_286     log     factor     1.00     1.00E-10     1.00E+10     a     1     0     1
     an1_p6_303     log     factor     1.00     1.00E-10     1.00E+10     a     1     0     1
     an1_p6_321     log     factor     1.00     1.00E-10     1.00E+10     a     1     0     1
     an1_p6_338     log     factor     1.00     1.00E-10     1.00E+10     a     1     0     1
     an1_p23_6     log     factor     1.00     1.00E-10     1.00E+10     a     1     0     1
     an1_p23_23     log     factor     1.00     1.00E-10     1.00E+10     a     1     0     1
     an1_p23_41     log     factor     1.00     1.00E-10     1.00E+10     a     1     0     1
     an1_p23_58     log     factor     1.00     1.00E-10     1.00E+10     a     1     0     1
     an1_p23_76     log     factor     1.00     1.00E-10     1.00E+10     a     1     0     1
     an1_p23_93     log     factor     1.00     1.00E-10     1.00E+10     a     1     0     1
     an1_p23_111     log     factor     1.00     1.00E-10     1.00E+10     a     1     0     1
     an1_p23_128     log     factor     1.00     1.00E-10     1.00E+10     a     1     0     1
     an1_p23_146     log     factor     1.00     1.00E-10     1.00E+10     a     1     0     1
     an1_p23_163     log     factor     1.00     1.00E-10     1.00E+10     a     1     0     1
     an1_p23_181     log     factor     1.00     1.00E-10     1.00E+10     a     1     0     1
     an1_p23_198     log     factor     1.00     1.00E-10     1.00E+10     a     1     0     1
     an1_p23_216     log     factor     1.00     1.00E-10     1.00E+10     a     1     0     1
     an1_p23_233     log     factor     1.00     1.00E-10     1.00E+10     a     1     0     1
     an1_p23_251     log     factor     1.00     1.00E-10     1.00E+10     a     1     0     1
     an1_p23_268     log     factor     1.00     1.00E-10     1.00E+10     a     1     0     1
     an1_p23_286     log     factor     1.00     1.00E-10     1.00E+10     a     1     0     1
     an1_p23_303     log     factor     1.00     1.00E-10     1.00E+10     a     1     0     1
     an1_p23_321     log     factor     1.00     1.00E-10     1.00E+10     a     1     0     1
     an1_p23_338     log     factor     1.00     1.00E-10     1.00E+10     a     1     0     1
     an1_p41_6     log     factor     1.00     1.00E-10     1.00E+10     a     1     0     1
     an1_p41_23     log     factor     1.00     1.00E-10     1.00E+10     a     1     0     1
     an1_p41_41     log     factor     1.00     1.00E-10     1.00E+10     a     1     0     1
     an1_p41_58     log     factor     1.00     1.00E-10     1.00E+10     a     1     0     1
     an1_p41_76     log     factor     1.00     1.00E-10     1.00E+10     a     1     0     1
     an1_p41_93     log     factor     1.00     1.00E-10     1.00E+10     a     1     0     1
     an1_p41_111     log     factor     1.00     1.00E-10     1.00E+10     a     1     0     1
     an1_p41_128     log     factor     1.00     1.00E-10     1.00E+10     a     1     0     1
     an1_p41_146     log     factor     1.00     1.00E-10     1.00E+10     a     1     0     1
     an1_p41_163     log     factor     1.00     1.00E-10     1.00E+10     a     1     0     1
     an1_p41_181     log     factor     1.00     1.00E-10     1.00E+10     a     1     0     1
     an1_p41_198     log     factor     1.00     1.00E-10     1.00E+10     a     1     0     1
     an1_p41_216     log     factor     1.00     1.00E-10     1.00E+10     a     1     0     1
     an1_p41_233     log     factor     1.00     1.00E-10     1.00E+10     a     1     0     1
     an1_p41_251     log     factor     1.00     1.00E-10     1.00E+10     a     1     0     1
     an1_p41_268     log     factor     1.00     1.00E-10     1.00E+10     a     1     0     1
     an1_p41_286     log     factor     1.00     1.00E-10     1.00E+10     a     1     0     1
     an1_p41_303     log     factor     1.00     1.00E-10     1.00E+10     a     1     0     1
     an1_p41_321     log     factor     1.00     1.00E-10     1.00E+10     a     1     0     1
     an1_p41_338     log     factor     1.00     1.00E-10     1.00E+10     a     1     0     1
     an1_p58_6     log     factor     1.00     1.00E-10     1.00E+10     a     1     0     1
     an1_p58_23     log     factor     1.00     1.00E-10     1.00E+10     a     1     0     1
     an1_p58_41     log     factor     1.00     1.00E-10     1.00E+10     a     1     0     1
     an1_p58_58     log     factor     1.00     1.00E-10     1.00E+10     a     1     0     1
     an1_p58_76     log     factor     1.00     1.00E-10     1.00E+10     a     1     0     1
     an1_p58_93     log     factor     1.00     1.00E-10     1.00E+10     a     1     0     1
     an1_p58_111     log     factor     1.00     1.00E-10     1.00E+10     a     1     0     1
     an1_p58_128     log     factor     1.00     1.00E-10     1.00E+10     a     1     0     1
     an1_p58_146     log     factor     1.00     1.00E-10     1.00E+10     a     1     0     1
     an1_p58_163     log     factor     1.00     1.00E-10     1.00E+10     a     1     0     1
     an1_p58_181     log     factor     1.00     1.00E-10     1.00E+10     a     1     0     1
     an1_p58_198     log     factor     1.00     1.00E-10     1.00E+10     a     1     0     1
     an1_p58_216     log     factor     1.00     1.00E-10     1.00E+10     a     1     0     1
     an1_p58_233     log     factor     1.00     1.00E-10     1.00E+10     a     1     0     1
     an1_p58_251     log     factor     1.00     1.00E-10     1.00E+10     a     1     0     1
     an1_p58_268     log     factor     1.00     1.00E-10     1.00E+10     a     1     0     1
     an1_p58_286     log     factor     1.00     1.00E-10     1.00E+10     a     1     0     1
     an1_p58_303     log     factor     1.00     1.00E-10     1.00E+10     a     1     0     1
     an1_p58_321     log     factor     1.00     1.00E-10     1.00E+10     a     1     0     1
     an1_p58_338     log     factor     1.00     1.00E-10     1.00E+10     a     1     0     1
     an1_p76_6     log     factor     1.00     1.00E-10     1.00E+10     a     1     0     1
     an1_p76_23     log     factor     1.00     1.00E-10     1.00E+10     a     1     0     1
     an1_p76_41     log     factor     1.00     1.00E-10     1.00E+10     a     1     0     1
     an1_p76_58     log     factor     1.00     1.00E-10     1.00E+10     a     1     0     1
     an1_p76_76     log     factor     1.00     1.00E-10     1.00E+10     a     1     0     1
     an1_p76_93     log     factor     1.00     1.00E-10     1.00E+10     a     1     0     1
     an1_p76_111     log     factor     1.00     1.00E-10     1.00E+10     a     1     0     1
     an1_p76_128     log     factor     1.00     1.00E-10     1.00E+10     a     1     0     1
     an1_p76_146     log     factor     1.00     1.00E-10     1.00E+10     a     1     0     1
     an1_p76_163     log     factor     1.00     1.00E-10     1.00E+10     a     1     0     1
     an1_p76_181     log     factor     1.00     1.00E-10     1.00E+10     a     1     0     1
     an1_p76_198     log     factor     1.00     1.00E-10     1.00E+10     a     1     0     1
     an1_p76_216     log     factor     1.00     1.00E-10     1.00E+10     a     1     0     1
     an1_p76_233     log     factor     1.00     1.00E-10     1.00E+10     a     1     0     1
     an1_p76_251     log     factor     1.00     1.00E-10     1.00E+10     a     1     0     1
     an1_p76_268     log     factor     1.00     1.00E-10     1.00E+10     a     1     0     1
     an1_p76_286     log     factor     1.00     1.00E-10     1.00E+10     a     1     0     1
     an1_p76_303     log     factor     1.00     1.00E-10     1.00E+10     a     1     0     1
     an1_p76_321     log     factor     1.00     1.00E-10     1.00E+10     a     1     0     1
     an1_p76_338     log     factor     1.00     1.00E-10     1.00E+10     a     1     0     1
     an1_p93_6     log     factor     1.00     1.00E-10     1.00E+10     a     1     0     1
     an1_p93_23     log     factor     1.00     1.00E-10     1.00E+10     a     1     0     1
     an1_p93_41     log     factor     1.00     1.00E-10     1.00E+10     a     1     0     1
     an1_p93_58     log     factor     1.00     1.00E-10     1.00E+10     a     1     0     1
     an1_p93_76     log     factor     1.00     1.00E-10     1.00E+10     a     1     0     1
     an1_p93_93     log     factor     1.00     1.00E-10     1.00E+10     a     1     0     1
     an1_p93_111     log     factor     1.00     1.00E-10     1.00E+10     a     1     0     1
     an1_p93_128     log     factor     1.00     1.00E-10     1.00E+10     a     1     0     1
     an1_p93_146     log     factor     1.00     1.00E-10     1.00E+10     a     1     0     1
     an1_p93_163     log     factor     1.00     1.00E-10     1.00E+10     a     1     0     1
     an1_p93_181     log     factor     1.00     1.00E-10     1.00E+10     a     1     0     1
     an1_p93_198     log     factor     1.00     1.00E-10     1.00E+10     a     1     0     1
     an1_p93_216     log     factor     1.00     1.00E-10     1.00E+10     a     1     0     1
     an1_p93_233     log     factor     1.00     1.00E-10     1.00E+10     a     1     0     1
     an1_p93_251     log     factor     1.00     1.00E-10     1.00E+10     a     1     0     1
     an1_p93_268     log     factor     1.00     1.00E-10     1.00E+10     a     1     0     1
     an1_p93_286     log     factor     1.00     1.00E-10     1.00E+10     a     1     0     1
     an1_p93_303     log     factor     1.00     1.00E-10     1.00E+10     a     1     0     1
     an1_p93_321     log     factor     1.00     1.00E-10     1.00E+10     a     1     0     1
     an1_p93_338     log     factor     1.00     1.00E-10     1.00E+10     a     1     0     1
     an1_p111_6     log     factor     1.00     1.00E-10     1.00E+10     a     1     0     1
     an1_p111_23     log     factor     1.00     1.00E-10     1.00E+10     a     1     0     1
     an1_p111_41     log     factor     1.00     1.00E-10     1.00E+10     a     1     0     1
     an1_p111_58     log     factor     1.00     1.00E-10     1.00E+10     a     1     0     1
     an1_p111_76     log     factor     1.00     1.00E-10     1.00E+10     a     1     0     1
     an1_p111_93     log     factor     1.00     1.00E-10     1.00E+10     a     1     0     1
     an1_p111_111     log     factor     1.00     1.00E-10     1.00E+10     a     1     0     1
     an1_p111_128     log     factor     1.00     1.00E-10     1.00E+10     a     1     0     1
     an1_p111_146     log     factor     1.00     1.00E-10     1.00E+10     a     1     0     1
     an1_p111_163     log     factor     1.00     1.00E-10     1.00E+10     a     1     0     1
     an1_p111_181     log     factor     1.00     1.00E-10     1.00E+10     a     1     0     1
     an1_p111_198     log     factor     1.00     1.00E-10     1.00E+10     a     1     0     1
     an1_p111_216     log     factor     1.00     1.00E-10     1.00E+10     a     1     0     1
     an1_p111_233     log     factor     1.00     1.00E-10     1.00E+10     a     1     0     1
     an1_p111_251     log     factor     1.00     1.00E-10     1.00E+10     a     1     0     1
     an1_p111_268     log     factor     1.00     1.00E-10     1.00E+10     a     1     0     1
     an1_p111_286     log     factor     1.00     1.00E-10     1.00E+10     a     1     0     1
     an1_p111_303     log     factor     1.00     1.00E-10     1.00E+10     a     1     0     1
     an1_p111_321     log     factor     1.00     1.00E-10     1.00E+10     a     1     0     1
     an1_p111_338     log     factor     1.00     1.00E-10     1.00E+10     a     1     0     1
     an1_p128_6     log     factor     1.00     1.00E-10     1.00E+10     a     1     0     1
     an1_p128_23     log     factor     1.00     1.00E-10     1.00E+10     a     1     0     1
     an1_p128_41     log     factor     1.00     1.00E-10     1.00E+10     a     1     0     1
     an1_p128_58     log     factor     1.00     1.00E-10     1.00E+10     a     1     0     1
     an1_p128_76     log     factor     1.00     1.00E-10     1.00E+10     a     1     0     1
     an1_p128_93     log     factor     1.00     1.00E-10     1.00E+10     a     1     0     1
     an1_p128_111     log     factor     1.00     1.00E-10     1.00E+10     a     1     0     1
     an1_p128_128     log     factor     1.00     1.00E-10     1.00E+10     a     1     0     1
     an1_p128_146     log     factor     1.00     1.00E-10     1.00E+10     a     1     0     1
     an1_p128_163     log     factor     1.00     1.00E-10     1.00E+10     a     1     0     1
     an1_p128_181     log     factor     1.00     1.00E-10     1.00E+10     a     1     0     1
     an1_p128_198     log     factor     1.00     1.00E-10     1.00E+10     a     1     0     1
     an1_p128_216     log     factor     1.00     1.00E-10     1.00E+10     a     1     0     1
     an1_p128_233     log     factor     1.00     1.00E-10     1.00E+10     a     1     0     1
     an1_p128_251     log     factor     1.00     1.00E-10     1.00E+10     a     1     0     1
     an1_p128_268     log     factor     1.00     1.00E-10     1.00E+10     a     1     0     1
     an1_p128_286     log     factor     1.00     1.00E-10     1.00E+10     a     1     0     1
     an1_p128_303     log     factor     1.00     1.00E-10     1.00E+10     a     1     0     1
     an1_p128_321     log     factor     1.00     1.00E-10     1.00E+10     a     1     0     1
     an1_p128_338     log     factor     1.00     1.00E-10     1.00E+10     a     1     0     1
     an1_p146_6     log     factor     1.00     1.00E-10     1.00E+10     a     1     0     1
     an1_p146_23     log     factor     1.00     1.00E-10     1.00E+10     a     1     0     1
     an1_p146_41     log     factor     1.00     1.00E-10     1.00E+10     a     1     0     1
     an1_p146_58     log     factor     1.00     1.00E-10     1.00E+10     a     1     0     1
     an1_p146_76     log     factor     1.00     1.00E-10     1.00E+10     a     1     0     1
     an1_p146_93     log     factor     1.00     1.00E-10     1.00E+10     a     1     0     1
     an1_p146_111     log     factor     1.00     1.00E-10     1.00E+10     a     1     0     1
     an1_p146_128     log     factor     1.00     1.00E-10     1.00E+10     a     1     0     1
     an1_p146_146     log     factor     1.00     1.00E-10     1.00E+10     a     1     0     1
     an1_p146_163     log     factor     1.00     1.00E-10     1.00E+10     a     1     0     1
     an1_p146_181     log     factor     1.00     1.00E-10     1.00E+10     a     1     0     1
     an1_p146_198     log     factor     1.00     1.00E-10     1.00E+10     a     1     0     1
     an1_p146_216     log     factor     1.00     1.00E-10     1.00E+10     a     1     0     1
     an1_p146_233     log     factor     1.00     1.00E-10     1.00E+10     a     1     0     1
     an1_p146_251     log     factor     1.00     1.00E-10     1.00E+10     a     1     0     1
     an1_p146_268     log     factor     1.00     1.00E-10     1.00E+10     a     1     0     1
     an1_p146_286     log     factor     1.00     1.00E-10     1.00E+10     a     1     0     1
     an1_p146_303     log     factor     1.00     1.00E-10     1.00E+10     a     1     0     1
     an1_p146_321     log     factor     1.00     1.00E-10     1.00E+10     a     1     0     1
     an1_p146_338     log     factor     1.00     1.00E-10     1.00E+10     a     1     0     1
     an1_p163_6     log     factor     1.00     1.00E-10     1.00E+10     a     1     0     1
     an1_p163_23     log     factor     1.00     1.00E-10     1.00E+10     a     1     0     1
     an1_p163_41     log     factor     1.00     1.00E-10     1.00E+10     a     1     0     1
     an1_p163_58     log     factor     1.00     1.00E-10     1.00E+10     a     1     0     1
     an1_p163_76     log     factor     1.00     1.00E-10     1.00E+10     a     1     0     1
     an1_p163_93     log     factor     1.00     1.00E-10     1.00E+10     a     1     0     1
     an1_p163_111     log     factor     1.00     1.00E-10     1.00E+10     a     1     0     1
     an1_p163_128     log     factor     1.00     1.00E-10     1.00E+10     a     1     0     1
     an1_p163_146     log     factor     1.00     1.00E-10     1.00E+10     a     1     0     1
     an1_p163_163     log     factor     1.00     1.00E-10     1.00E+10     a     1     0     1
     an1_p163_181     log     factor     1.00     1.00E-10     1.00E+10     a     1     0     1
     an1_p163_198     log     factor     1.00     1.00E-10     1.00E+10     a     1     0     1
     an1_p163_216     log     factor     1.00     1.00E-10     1.00E+10     a     1     0     1
     an1_p163_233     log     factor     1.00     1.00E-10     1.00E+10     a     1     0     1
     an1_p163_251     log     factor     1.00     1.00E-10     1.00E+10     a     1     0     1
     an1_p163_268     log     factor     1.00     1.00E-10     1.00E+10     a     1     0     1
     an1_p163_286     log     factor     1.00     1.00E-10     1.00E+10     a     1     0     1
     an1_p163_303     log     factor     1.00     1.00E-10     1.00E+10     a     1     0     1
     an1_p163_321     log     factor     1.00     1.00E-10     1.00E+10     a     1     0     1
     an1_p163_338     log     factor     1.00     1.00E-10     1.00E+10     a     1     0     1
     an1_p181_6     log     factor     1.00     1.00E-10     1.00E+10     a     1     0     1
     an1_p181_23     log     factor     1.00     1.00E-10     1.00E+10     a     1     0     1
     an1_p181_41     log     factor     1.00     1.00E-10     1.00E+10     a     1     0     1
     an1_p181_58     log     factor     1.00     1.00E-10     1.00E+10     a     1     0     1
     an1_p181_76     log     factor     1.00     1.00E-10     1.00E+10     a     1     0     1
     an1_p181_93     log     factor     1.00     1.00E-10     1.00E+10     a     1     0     1
     an1_p181_111     log     factor     1.00     1.00E-10     1.00E+10     a     1     0     1
     an1_p181_128     log     factor     1.00     1.00E-10     1.00E+10     a     1     0     1
     an1_p181_146     log     factor     1.00     1.00E-10     1.00E+10     a     1     0     1
     an1_p181_163     log     factor     1.00     1.00E-10     1.00E+10     a     1     0     1
     an1_p181_181     log     factor     1.00     1.00E-10     1.00E+10     a     1     0     1
     an1_p181_198     log     factor     1.00     1.00E-10     1.00E+10     a     1     0     1
     an1_p181_216     log     factor     1.00     1.00E-10     1.00E+10     a     1     0     1
     an1_p181_233     log     factor     1.00     1.00E-10     1.00E+10     a     1     0     1
     an1_p181_251     log     factor     1.00     1.00E-10     1.00E+10     a     1     0     1
     an1_p181_268     log     factor     1.00     1.00E-10     1.00E+10     a     1     0     1
     an1_p181_286     log     factor     1.00     1.00E-10     1.00E+10     a     1     0     1
     an1_p181_303     log     factor     1.00     1.00E-10     1.00E+10     a     1     0     1
     an1_p181_321     log     factor     1.00     1.00E-10     1.00E+10     a     1     0     1
     an1_p181_338     log     factor     1.00     1.00E-10     1.00E+10     a     1     0     1
     an1_p198_6     log     factor     1.00     1.00E-10     1.00E+10     a     1     0     1
     an1_p198_23     log     factor     1.00     1.00E-10     1.00E+10     a     1     0     1
     an1_p198_41     log     factor     1.00     1.00E-10     1.00E+10     a     1     0     1
     an1_p198_58     log     factor     1.00     1.00E-10     1.00E+10     a     1     0     1
     an1_p198_76     log     factor     1.00     1.00E-10     1.00E+10     a     1     0     1
     an1_p198_93     log     factor     1.00     1.00E-10     1.00E+10     a     1     0     1
     an1_p198_111     log     factor     1.00     1.00E-10     1.00E+10     a     1     0     1
     an1_p198_128     log     factor     1.00     1.00E-10     1.00E+10     a     1     0     1
     an1_p198_146     log     factor     1.00     1.00E-10     1.00E+10     a     1     0     1
     an1_p198_163     log     factor     1.00     1.00E-10     1.00E+10     a     1     0     1
     an1_p198_181     log     factor     1.00     1.00E-10     1.00E+10     a     1     0     1
     an1_p198_198     log     factor     1.00     1.00E-10     1.00E+10     a     1     0     1
     an1_p198_216     log     factor     1.00     1.00E-10     1.00E+10     a     1     0     1
     an1_p198_233     log     factor     1.00     1.00E-10     1.00E+10     a     1     0     1
     an1_p198_251     log     factor     1.00     1.00E-10     1.00E+10     a     1     0     1
     an1_p198_268     log     factor     1.00     1.00E-10     1.00E+10     a     1     0     1
     an1_p198_286     log     factor     1.00     1.00E-10     1.00E+10     a     1     0     1
     an1_p198_303     log     factor     1.00     1.00E-10     1.00E+10     a     1     0     1
     an1_p198_321     log     factor     1.00     1.00E-10     1.00E+10     a     1     0     1
     an1_p198_338     log     factor     1.00     1.00E-10     1.00E+10     a     1     0     1
     an1_p216_6     log     factor     1.00     1.00E-10     1.00E+10     a     1     0     1
     an1_p216_23     log     factor     1.00     1.00E-10     1.00E+10     a     1     0     1
     an1_p216_41     log     factor     1.00     1.00E-10     1.00E+10     a     1     0     1
     an1_p216_58     log     factor     1.00     1.00E-10     1.00E+10     a     1     0     1
     an1_p216_76     log     factor     1.00     1.00E-10     1.00E+10     a     1     0     1
     an1_p216_93     log     factor     1.00     1.00E-10     1.00E+10     a     1     0     1
     an1_p216_111     log     factor     1.00     1.00E-10     1.00E+10     a     1     0     1
     an1_p216_128     log     factor     1.00     1.00E-10     1.00E+10     a     1     0     1
     an1_p216_146     log     factor     1.00     1.00E-10     1.00E+10     a     1     0     1
     an1_p216_163     log     factor     1.00     1.00E-10     1.00E+10     a     1     0     1
     an1_p216_181     log     factor     1.00     1.00E-10     1.00E+10     a     1     0     1
     an1_p216_198     log     factor     1.00     1.00E-10     1.00E+10     a     1     0     1
     an1_p216_216     log     factor     1.00     1.00E-10     1.00E+10     a     1     0     1
     an1_p216_233     log     factor     1.00     1.00E-10     1.00E+10     a     1     0     1
     an1_p216_251     log     factor     1.00     1.00E-10     1.00E+10     a     1     0     1
     an1_p216_268     log     factor     1.00     1.00E-10     1.00E+10     a     1     0     1
     an1_p216_286     log     factor     1.00     1.00E-10     1.00E+10     a     1     0     1
     an1_p216_303     log     factor     1.00     1.00E-10     1.00E+10     a     1     0     1
     an1_p216_321     log     factor     1.00     1.00E-10     1.00E+10     a     1     0     1
     an1_p216_338     log     factor     1.00     1.00E-10     1.00E+10     a     1     0     1
     an1_p233_6     log     factor     1.00     1.00E-10     1.00E+10     a     1     0     1
     an1_p233_23     log     factor     1.00     1.00E-10     1.00E+10     a     1     0     1
     an1_p233_41     log     factor     1.00     1.00E-10     1.00E+10     a     1     0     1
     an1_p233_58     log     factor     1.00     1.00E-10     1.00E+10     a     1     0     1
     an1_p233_76     log     factor     1.00     1.00E-10     1.00E+10     a     1     0     1
     an1_p233_93     log     factor     1.00     1.00E-10     1.00E+10     a     1     0     1
     an1_p233_111     log     factor     1.00     1.00E-10     1.00E+10     a     1     0     1
     an1_p233_128     log     factor     1.00     1.00E-10     1.00E+10     a     1     0     1
     an1_p233_146     log     factor     1.00     1.00E-10     1.00E+10     a     1     0     1
     an1_p233_163     log     factor     1.00     1.00E-10     1.00E+10     a     1     0     1
     an1_p233_181     log     factor     1.00     1.00E-10     1.00E+10     a     1     0     1
     an1_p233_198     log     factor     1.00     1.00E-10     1.00E+10     a     1     0     1
     an1_p233_216     log     factor     1.00     1.00E-10     1.00E+10     a     1     0     1
     an1_p233_233     log     factor     1.00     1.00E-10     1.00E+10     a     1     0     1
     an1_p233_251     log     factor     1.00     1.00E-10     1.00E+10     a     1     0     1
     an1_p233_268     log     factor     1.00     1.00E-10     1.00E+10     a     1     0     1
     an1_p233_286     log     factor     1.00     1.00E-10     1.00E+10     a     1     0     1
     an1_p233_303     log     factor     1.00     1.00E-10     1.00E+10     a     1     0     1
     an1_p233_321     log     factor     1.00     1.00E-10     1.00E+10     a     1     0     1
     an1_p233_338     log     factor     1.00     1.00E-10     1.00E+10     a     1     0     1
     an1_p251_6     log     factor     1.00     1.00E-10     1.00E+10     a     1     0     1
     an1_p251_23     log     factor     1.00     1.00E-10     1.00E+10     a     1     0     1
     an1_p251_41     log     factor     1.00     1.00E-10     1.00E+10     a     1     0     1
     an1_p251_58     log     factor     1.00     1.00E-10     1.00E+10     a     1     0     1
     an1_p251_76     log     factor     1.00     1.00E-10     1.00E+10     a     1     0     1
     an1_p251_93     log     factor     1.00     1.00E-10     1.00E+10     a     1     0     1
     an1_p251_111     log     factor     1.00     1.00E-10     1.00E+10     a     1     0     1
     an1_p251_128     log     factor     1.00     1.00E-10     1.00E+10     a     1     0     1
     an1_p251_146     log     factor     1.00     1.00E-10     1.00E+10     a     1     0     1
     an1_p251_163     log     factor     1.00     1.00E-10     1.00E+10     a     1     0     1
     an1_p251_181     log     factor     1.00     1.00E-10     1.00E+10     a     1     0     1
     an1_p251_198     log     factor     1.00     1.00E-10     1.00E+10     a     1     0     1
     an1_p251_216     log     factor     1.00     1.00E-10     1.00E+10     a     1     0     1
     an1_p251_233     log     factor     1.00     1.00E-10     1.00E+10     a     1     0     1
     an1_p251_251     log     factor     1.00     1.00E-10     1.00E+10     a     1     0     1
     an1_p251_268     log     factor     1.00     1.00E-10     1.00E+10     a     1     0     1
     an1_p251_286     log     factor     1.00     1.00E-10     1.00E+10     a     1     0     1
     an1_p251_303     log     factor     1.00     1.00E-10     1.00E+10     a     1     0     1
     an1_p251_321     log     factor     1.00     1.00E-10     1.00E+10     a     1     0     1
     an1_p251_338     log     factor     1.00     1.00E-10     1.00E+10     a     1     0     1
     an1_p268_6     log     factor     1.00     1.00E-10     1.00E+10     a     1     0     1
     an1_p268_23     log     factor     1.00     1.00E-10     1.00E+10     a     1     0     1
     an1_p268_41     log     factor     1.00     1.00E-10     1.00E+10     a     1     0     1
     an1_p268_58     log     factor     1.00     1.00E-10     1.00E+10     a     1     0     1
     an1_p268_76     log     factor     1.00     1.00E-10     1.00E+10     a     1     0     1
     an1_p268_93     log     factor     1.00     1.00E-10     1.00E+10     a     1     0     1