pcf
* control data
restart estimation
3 1170 2 0 2
1  1  double  point  1  0  0
1.000000e+001  2.000000e+000  3.000000e-001  1.000000e-002  10
1.000000e+001  1.000000e+001  1.000000e-003
1.000000e-001 noaui
0  1.000000e-002  3  3  1.000000e-002  3 **** CONTROLS OPTIMIZATION: SEE PEST MANUAL ****
1  1  1
* parameter groups
Kh     relative   1.000000e-002  0.000000e+000  switch  2.000000e+000  parabolic
Rch    relative   1.000000e-002  0.000000e+000  switch  2.000000e+000  parabolic
* parameter data
Kkettle_____	log   factor   6	 .6	 60	Kh     1.0      0.0 1
Rmiddle_____	none  factor   .001321	 .0001321	 .01321	Rch    -1.0     0.0 1
Rnorth______	none  factor   .002035	 .0002035	 .02035	Rch    -1.0     0.0 1
* observation groups
Head
Streamflow
* observation data
1 1070.58	1.000000 Head
2 1100.11	1.000000 Head
3 1106.35	1.000000 Head
4 1125.02	1.000000 Head
5 1181.29	1.000000 Head
6 1130.81	1.000000 Head
7 1072.24	1.000000 Head
8 1150.4	1.000000 Head
9 1074.41	1.000000 Head
10 1168.62	1.000000 Head
11 1085.11	1.000000 Head
12 1274.03	1.000000 Head
13 1269.51	1.000000 Head
14 1292	1.000000 Head
154 1072.75	1.000000 Head
161 1136.96	1.000000 Head
162 1118.4	1.000000 Head
290 952.72	1.000000 Head
297 974.73	1.000000 Head
306 973.51	1.000000 Head
307 915.78	1.000000 Head
309 929.8	1.000000 Head
320 974.97	1.000000 Head
321 978.2	1.000000 Head
322 971.54	1.000000 Head
324 962.74	1.000000 Head
330 1007.05	1.000000 Head
333 979.22	1.000000 Head
334 1008.06	1.000000 Head
336 1004.53	1.000000 Head
339 978.09	1.000000 Head
341 1010.15	1.000000 Head
343 1010.49	1.000000 Head
344 1008.26	1.000000 Head
346 1000.24	1.000000 Head
347 1003.67	1.000000 Head
351 980.34	1.000000 Head
352 1020.06	1.000000 Head
354 983.6	1.000000 Head
355 1023.21	1.000000 Head
356 1028.96	1.000000 Head
358 1020.42	1.000000 Head
359 1028.98	1.000000 Head
360 1029.91	1.000000 Head
362 1029.69	1.000000 Head
363 1005.9	1.000000 Head
364 1025.11	1.000000 Head
366 1080	1.000000 Head
367 1001.9	1.000000 Head
368 1018.39	1.000000 Head
369 1002.29	1.000000 Head
370 1030.36	1.000000 Head
371 1013.98	1.000000 Head
375 1081.79	1.000000 Head
376 1042.97	1.000000 Head
377 1092.18	1.000000 Head
382 1029.98	1.000000 Head
387 1118.7	1.000000 Head
388 1090.45	1.000000 Head
391 1079.97	1.000000 Head
395 1143.1	1.000000 Head
396 1129.01	1.000000 Head
397 1090.54	1.000000 Head
398 1090.36	1.000000 Head
399 1061.62	1.000000 Head
400 1090.36	1.000000 Head
401 1086.83	1.000000 Head
402 1110.78	1.000000 Head
403 1140.41	1.000000 Head
404 1090.5	1.000000 Head
405 1115.17	1.000000 Head
406 1112.3	1.000000 Head
407 1119.11	1.000000 Head
408 1098.9	1.000000 Head
409 1090.12	1.000000 Head
410 1105.13	1.000000 Head
413 1130.3	1.000000 Head
414 1131.29	1.000000 Head
415 1127.39	1.000000 Head
416 1120.42	1.000000 Head
417 1137.96	1.000000 Head
418 1144.08	1.000000 Head
419 1123.1	1.000000 Head
420 1091.36	1.000000 Head
421 1131.41	1.000000 Head
422 1116.33	1.000000 Head
423 1130.34	1.000000 Head
424 1123.09	1.000000 Head
425 1130.3	1.000000 Head
427 1126.89	1.000000 Head
428 1125.83	1.000000 Head
429 1118.63	1.000000 Head
430 1140.02	1.000000 Head
431 1107.65	1.000000 Head
433 1123.93	1.000000 Head
435 1168.78	1.000000 Head
436 1159.37	1.000000 Head
437 1170.28	1.000000 Head
439 1092.28	1.000000 Head
440 1103.52	1.000000 Head
441 1157.29	1.000000 Head
442 1120.86	1.000000 Head
444 1099.29	1.000000 Head
445 1108.23	1.000000 Head
446 1103.6	1.000000 Head
447 1114.48	1.000000 Head
448 1104.92	1.000000 Head
449 1110.29	1.000000 Head
450 1087.78	1.000000 Head
451 1097.28	1.000000 Head
452 1101.44	1.000000 Head
453 1110.29	1.000000 Head
454 1105.87	1.000000 Head
455 1110.05	1.000000 Head
456 1098.65	1.000000 Head
457 1119.98	1.000000 Head
458 1090.81	1.000000 Head
459 1093.43	1.000000 Head
460 1091.71	1.000000 Head
461 1082.5	1.000000 Head
462 1112.65	1.000000 Head
463 1121.11	1.000000 Head
464 1091.54	1.000000 Head
465 1078.37	1.000000 Head
466 1082.44	1.000000 Head
467 1130.26	1.000000 Head
468 1109.07	1.000000 Head
469 1104.05	1.000000 Head
470 1100.2	1.000000 Head
471 1110.23	1.000000 Head
472 1172.47	1.000000 Head
473 1095.59	1.000000 Head
474 1078.89	1.000000 Head
475 1102.61	1.000000 Head
476 1100.75	1.000000 Head
477 1100.2	1.000000 Head
478 1143.31	1.000000 Head
479 1098.6	1.000000 Head
480 1129.93	1.000000 Head
481 1099.63	1.000000 Head
482 1201.69	1.000000 Head
484 1201.71	1.000000 Head
485 1046.75	1.000000 Head
486 1187.41	1.000000 Head
487 1161	1.000000 Head
488 1041.71	1.000000 Head
489 1052.17	1.000000 Head
490 1024.72	1.000000 Head
491 1030.92	1.000000 Head
492 1097.31	1.000000 Head
493 1179.63	1.000000 Head
494 1112.41	1.000000 Head
495 1040.08	1.000000 Head
496 1023.52	1.000000 Head
497 1079.8	1.000000 Head
498 1089.65	1.000000 Head
499 1092.57	1.000000 Head
500 1025.29	1.000000 Head
501 1040.43	1.000000 Head
502 1148.91	1.000000 Head
503 1101.83	1.000000 Head
504 1169.18	1.000000 Head
505 1067.18	1.000000 Head
506 1131.26	1.000000 Head
507 1069.47	1.000000 Head
508 1026.11	1.000000 Head
510 1079.87	1.000000 Head
511 1045.05	1.000000 Head
512 1040.51	1.000000 Head
513 1098.77	1.000000 Head
514 1050.39	1.000000 Head
515 1033.78	1.000000 Head
516 1049.69	1.000000 Head
517 1045.04	1.000000 Head
518 1050.32	1.000000 Head
519 1139.26	1.000000 Head
520 1129.69	1.000000 Head
521 1176.56	1.000000 Head
522 1241.85	1.000000 Head
523 1059.2	1.000000 Head
524 1090.16	1.000000 Head
525 1088.86	1.000000 Head
526 1029.24	1.000000 Head
527 1089.86	1.000000 Head
528 1068.72	1.000000 Head
529 1066.57	1.000000 Head
530 1073.56	1.000000 Head
531 1086.73	1.000000 Head
532 1145.39	1.000000 Head
533 1087.53	1.000000 Head
534 1070.33	1.000000 Head
535 1079.65	1.000000 Head
536 1078.41	1.000000 Head
537 1069.99	1.000000 Head
538 1075.16	1.000000 Head
539 1067.67	1.000000 Head
540 1069.61	1.000000 Head
541 1070.27	1.000000 Head
542 1140.44	1.000000 Head
543 1140.21	1.000000 Head
544 1074.29	1.000000 Head
545 1097.44	1.000000 Head
546 1128.17	1.000000 Head
547 1117.07	1.000000 Head
548 1104.8	1.000000 Head
549 1085.45	1.000000 Head
550 1072.68	1.000000 Head
551 1074.91	1.000000 Head
552 1085.54	1.000000 Head
553 1081.6	1.000000 Head
554 1106.63	1.000000 Head
555 1105.6	1.000000 Head
556 1097.3	1.000000 Head
557 1088.93	1.000000 Head
558 1071.14	1.000000 Head
559 1097.6	1.000000 Head
560 1101.63	1.000000 Head
751 1117	1.000000 Head
784 1131	1.000000 Head
785 1200	1.000000 Head
787 1151	1.000000 Head
788 1051	1.000000 Head
789 1140	1.000000 Head
790 1133	1.000000 Head
791 1032	1.000000 Head
792 1030	1.000000 Head
793 1101	1.000000 Head
797 1130	1.000000 Head
798 1042	1.000000 Head
800 1121	1.000000 Head
802 1130	1.000000 Head
805 1010	1.000000 Head
806 1131	1.000000 Head
807 1115	1.000000 Head
809 1041	1.000000 Head
810 1105	1.000000 Head
811 1105	1.000000 Head
818 1105	1.000000 Head
819 971	1.000000 Head
821 1190	1.000000 Head
822 1002	1.000000 Head
823 1108	1.000000 Head
824 1126	1.000000 Head
825 1133	1.000000 Head
826 958	1.000000 Head
829 1076	1.000000 Head
832 1055	1.000000 Head
833 1125	1.000000 Head
834 1032	1.000000 Head
836 1100	1.000000 Head
837 1062	1.000000 Head
838 1113	1.000000 Head
839 1132	1.000000 Head
840 1146	1.000000 Head
841 1213	1.000000 Head
845 993	1.000000 Head
846 1085	1.000000 Head
847 1161	1.000000 Head
848 1021	1.000000 Head
849 960	1.000000 Head
850 1120	1.000000 Head
851 1128	1.000000 Head
852 1143	1.000000 Head
853 1180	1.000000 Head
858 1083	1.000000 Head
859 1148	1.000000 Head
862 980	1.000000 Head
865 1108	1.000000 Head
867 1045	1.000000 Head
869 1187	1.000000 Head
870 1081	1.000000 Head
871 1097	1.000000 Head
874 1045	1.000000 Head
881 1038	1.000000 Head
883 1111	1.000000 Head
884 1105	1.000000 Head
885 1110	1.000000 Head
887 1102	1.000000 Head
888 1077	1.000000 Head
889 1082	1.000000 Head
891 978	1.000000 Head
892 1170	1.000000 Head
895 1151	1.000000 Head
896 1131	1.000000 Head
897 1004	1.000000 Head
898 1147	1.000000 Head
899 1018	1.000000 Head
900 1121	1.000000 Head
902 1084	1.000000 Head
903 1012	1.000000 Head
904 1142	1.000000 Head
906 1127	1.000000 Head
907 1122	1.000000 Head
908 1147	1.000000 Head
909 1151	1.000000 Head
910 1132	1.000000 Head
911 1151	1.000000 Head
912 992	1.000000 Head
913 1111	1.000000 Head
915 1074	1.000000 Head
917 1138	1.000000 Head
918 1003	1.000000 Head
919 985	1.000000 Head
921 1078	1.000000 Head
922 1269	1.000000 Head
923 982	1.000000 Head
924 1123	1.000000 Head
925 1127	1.000000 Head
927 983	1.000000 Head
928 1092	1.000000 Head
929 1070	1.000000 Head
931 1060	1.000000 Head
932 1131	1.000000 Head
934 1152	1.000000 Head
936 1091	1.000000 Head
940 1135	1.000000 Head
941 1125	1.000000 Head
944 1130	1.000000 Head
945 1005	1.000000 Head
946 1017	1.000000 Head
948 1018	1.000000 Head
950 1125	1.000000 Head
951 1140	1.000000 Head
952 1178	1.000000 Head
953 964	1.000000 Head
954 1220	1.000000 Head
955 1070	1.000000 Head
956 998	1.000000 Head
959 981	1.000000 Head
960 1102	1.000000 Head
961 1130	1.000000 Head
962 1098	1.000000 Head
965 1052	1.000000 Head
966 1063	1.000000 Head
971 1128	1.000000 Head
972 1085	1.000000 Head
973 1095	1.000000 Head
974 992	1.000000 Head
975 1152	1.000000 Head
976 1005	1.000000 Head
977 1032	1.000000 Head
978 1111	1.000000 Head
980 1004	1.000000 Head
981 1122	1.000000 Head
984 1119	1.000000 Head
985 1105	1.000000 Head
986 1112	1.000000 Head
987 1018	1.000000 Head
989 1095	1.000000 Head
991 1189	1.000000 Head
994 1028	1.000000 Head
995 978	1.000000 Head
996 1005	1.000000 Head
998 1113	1.000000 Head
999 1115	1.000000 Head
1000 1105	1.000000 Head
1001 1152	1.000000 Head
1002 994	1.000000 Head
1008 1121	1.000000 Head
1012 1095	1.000000 Head
1019 1057	1.000000 Head
1020 1142	1.000000 Head
1021 1132	1.000000 Head
1022 1113	1.000000 Head
1023 1065	1.000000 Head
1026 952	1.000000 Head
1030 1130	1.000000 Head
1031 1090	1.000000 Head
1032 1172	1.000000 Head
1033 1125	1.000000 Head
1034 1026	1.000000 Head
1035 1022	1.000000 Head
1036 1172	1.000000 Head
1037 1135	1.000000 Head
1039 1112	1.000000 Head
1040 1062	1.000000 Head
1041 1118	1.000000 Head
1042 977	1.000000 Head
1043 1159	1.000000 Head
1044 1003	1.000000 Head
1046 1043	1.000000 Head
1047 1151	1.000000 Head
1048 1121	1.000000 Head
1049 1229	1.000000 Head
1050 1015	1.000000 Head
1051 1028	1.000000 Head
1052 1098	1.000000 Head
1053 1128	1.000000 Head
1054 994	1.000000 Head
1055 1095	1.000000 Head
1058 1051	1.000000 Head
1059 1035	1.000000 Head
1061 983	1.000000 Head
1062 1131	1.000000 Head
1064 1220	1.000000 Head
1065 1120	1.000000 Head
1066 1131	1.000000 Head
1067 1162	1.000000 Head
1068 1091	1.000000 Head
1070 1211	1.000000 Head
1071 1168	1.000000 Head
1072 1152	1.000000 Head
1073 1045	1.000000 Head
1076 1125	1.000000 Head
1077 985	1.000000 Head
1083 1012	1.000000 Head
1084 1193	1.000000 Head
1086 1088	1.000000 Head
1087 1071	1.000000 Head
1088 1019	1.000000 Head
1089 1014	1.000000 Head
1090 1190	1.000000 Head
1091 1069	1.000000 Head
1092 1035	1.000000 Head
1093 1136	1.000000 Head
1094 1148	1.000000 Head
1095 980	1.000000 Head
1097 1097	1.000000 Head
1098 1037	1.000000 Head
1100 1169	1.000000 Head
1102 1162	1.000000 Head
1110 1019	1.000000 Head
1113 1240	1.000000 Head
1115 1128	1.000000 Head
1117 1142	1.000000 Head
1118 1108	1.000000 Head
1119 1125	1.000000 Head
1121 1147	1.000000 Head
1124 1078	1.000000 Head
1125 972	1.000000 Head
1127 1081	1.000000 Head
1130 1110	1.000000 Head
1133 1012	1.000000 Head
1134 1022	1.000000 Head
1136 1080	1.000000 Head
1137 1131	1.000000 Head
1139 1087	1.000000 Head
1140 1004	1.000000 Head
1141 1121	1.000000 Head
1144 993	1.000000 Head
1148 1060	1.000000 Head
1150 988	1.000000 Head
1151 1090	1.000000 Head
1152 1068	1.000000 Head
1155 1090	1.000000 Head
1156 1034	1.000000 Head
1157 1020	1.000000 Head
1160 1025	1.000000 Head
1162 1052	1.000000 Head
1163 1032	1.000000 Head
1165 1122	1.000000 Head
1166 911	1.000000 Head
1168 1067	1.000000 Head
1169 1105	1.000000 Head
1174 1251	1.000000 Head
1175 1098	1.000000 Head
1176 1121	1.000000 Head
1183 1053	1.000000 Head
1184 1078	1.000000 Head
1185 998	1.000000 Head
1186 1095	1.000000 Head
1188 1030	1.000000 Head
1200 1045	1.000000 Head
1201 1081	1.000000 Head
1204 1095	1.000000 Head
1205 1044	1.000000 Head
1206 1162	1.000000 Head
1208 1055	1.000000 Head
1209 1143	1.000000 Head
1211 1131	1.000000 Head
1213 1044	1.000000 Head
1214 969	1.000000 Head
1219 1132	1.000000 Head
1221 1003	1.000000 Head
1222 1185	1.000000 Head
1224 1045	1.000000 Head
1225 1055	1.000000 Head
1230 1013	1.000000 Head
1232 1160	1.000000 Head
1234 1108	1.000000 Head
1237 1129	1.000000 Head
1240 1141	1.000000 Head
1241 1134	1.000000 Head
1245 1189	1.000000 Head
1246 1152	1.000000 Head
1248 1009	1.000000 Head
1251 1089	1.000000 Head
1252 1211	1.000000 Head
1254 1190	1.000000 Head
1257 1061	1.000000 Head
1258 1004	1.000000 Head
1266 1044	1.000000 Head
1267 1044	1.000000 Head
1268 1090	1.000000 Head
1270 1087	1.000000 Head
1271 1073	1.000000 Head
1272 1153	1.000000 Head
1273 1013	1.000000 Head
1276 1126	1.000000 Head
1277 1150	1.000000 Head
1278 1143	1.000000 Head
1282 1101	1.000000 Head
1285 1048	1.000000 Head
1287 1132	1.000000 Head
1289 1014	1.000000 Head
1294 1032	1.000000 Head
1295 980	1.000000 Head
1296 1070	1.000000 Head
1298 1088	1.000000 Head
1300 1152	1.000000 Head
1301 1070	1.000000 Head
1303 1139	1.000000 Head
1305 1090	1.000000 Head
1307 1154	1.000000 Head
1308 1127	1.000000 Head
1309 1068	1.000000 Head
1310 1129	1.000000 Head
1311 1032	1.000000 Head
1313 1010	1.000000 Head
1314 975	1.000000 Head
1315 971	1.000000 Head
1316 1102	1.000000 Head
1317 1123	1.000000 Head
1318 1190	1.000000 Head
1320 1124	1.000000 Head
1321 1142	1.000000 Head
1323 1111	1.000000 Head
1324 1121	1.000000 Head
1328 1102	1.000000 Head
1329 1131	1.000000 Head
1330 1092	1.000000 Head
1332 1081	1.000000 Head
1333 1123	1.000000 Head
1336 1111	1.000000 Head
1337 1032	1.000000 Head
1338 1203	1.000000 Head
1339 1092	1.000000 Head
1340 1091	1.000000 Head
1343 1085	1.000000 Head
1345 1142	1.000000 Head
1349 1140	1.000000 Head
1350 1141	1.000000 Head
1351 1104	1.000000 Head
1352 1104	1.000000 Head
1355 1124	1.000000 Head
1357 1141	1.000000 Head
1358 1076	1.000000 Head
1360 989	1.000000 Head
1362 1098	1.000000 Head
1363 1190	1.000000 Head
1367 1122	1.000000 Head
1369 1112	1.000000 Head
1371 1080	1.000000 Head
1372 1049	1.000000 Head
1377 1108	1.000000 Head
1378 1095	1.000000 Head
1380 1045	1.000000 Head
1382 1144	1.000000 Head
1383 1044	1.000000 Head
1384 1118	1.000000 Head
1385 1015	1.000000 Head
1387 1131	1.000000 Head
1389 1198	1.000000 Head
1390 1104	1.000000 Head
1394 1145	1.000000 Head
1395 1061	1.000000 Head
1396 990	1.000000 Head
1397 1000	1.000000 Head
1398 1115	1.000000 Head
1404 1238	1.000000 Head
1407 1130	1.000000 Head
1410 1018	1.000000 Head
1411 1121	1.000000 Head
1412 1123	1.000000 Head
1413 1152	1.000000 Head
1414 1103	1.000000 Head
1417 1103	1.000000 Head
1418 1130	1.000000 Head
1421 1075	1.000000 Head
1422 1014	1.000000 Head
1423 988	1.000000 Head
1424 1029	1.000000 Head
1427 1090	1.000000 Head
1428 993	1.000000 Head
1429 1128	1.000000 Head
1432 982	1.000000 Head
1433 1046	1.000000 Head
1434 1055	1.000000 Head
1435 1096	1.000000 Head
1436 1083	1.000000 Head
1438 1066	1.000000 Head
1440 1112	1.000000 Head
1443 1105	1.000000 Head
1446 976	1.000000 Head
1453 992	1.000000 Head
1454 1128	1.000000 Head
1455 1173	1.000000 Head
1456 1098	1.000000 Head
1458 1022	1.000000 Head
1460 963	1.000000 Head
1462 1149	1.000000 Head
1463 1090	1.000000 Head
1465 1092	1.000000 Head
1466 1080	1.000000 Head
1470 1088	1.000000 Head
1471 1090	1.000000 Head
1472 1089	1.000000 Head
1475 1068	1.000000 Head
1479 1122	1.000000 Head
1481 1095	1.000000 Head
1484 1002	1.000000 Head
1485 1105	1.000000 Head
1486 1089	1.000000 Head
1488 1052	1.000000 Head
1489 1093	1.000000 Head
1491 1141	1.000000 Head
1492 1100	1.000000 Head
1493 1140	1.000000 Head
1497 1122	1.000000 Head
1498 1110	1.000000 Head
1500 1041	1.000000 Head
1501 1049	1.000000 Head
1503 1107	1.000000 Head
1504 1108	1.000000 Head
1505 1107	1.000000 Head
1506 1108	1.000000 Head
1508 1043	1.000000 Head
1509 1123	1.000000 Head
1511 1072	1.000000 Head
1516 1088	1.000000 Head
1518 1111	1.000000 Head
1520 1098	1.000000 Head
1523 1041	1.000000 Head
1527 1041	1.000000 Head
1529 1118	1.000000 Head
1530 1071	1.000000 Head
1532 1112	1.000000 Head
1533 1067	1.000000 Head
1534 1029	1.000000 Head
1535 1068	1.000000 Head
1537 1089	1.000000 Head
1539 1201	1.000000 Head
1540 952	1.000000 Head
1543 1092	1.000000 Head
1544 1168	1.000000 Head
1545 1165	1.000000 Head
1546 1165	1.000000 Head
1553 1082	1.000000 Head
1554 1108	1.000000 Head
1556 1043	1.000000 Head
1557 1032	1.000000 Head
1558 1135	1.000000 Head
1560 1159	1.000000 Head
1561 1098	1.000000 Head
1562 1119	1.000000 Head
1567 1090	1.000000 Head
1568 1120	1.000000 Head
1569 1090	1.000000 Head
1572 1084	1.000000 Head
1581 1062	1.000000 Head
1583 1145	1.000000 Head
1584 1152	1.000000 Head
1585 1082	1.000000 Head
1586 1152	1.000000 Head
1588 1092	1.000000 Head
1590 1040	1.000000 Head
1592 1018	1.000000 Head
1594 1118	1.000000 Head
1595 1104	1.000000 Head
1596 1094	1.000000 Head
1598 1110	1.000000 Head
1599 1041	1.000000 Head
1603 1086	1.000000 Head
1604 1132	1.000000 Head
1605 1099	1.000000 Head
1607 1122	1.000000 Head
1610 1131	1.000000 Head
1611 1180	1.000000 Head
1612 979	1.000000 Head
1613 1128	1.000000 Head
1614 994	1.000000 Head
1615 1069	1.000000 Head
1617 1081	1.000000 Head
1619 1109	1.000000 Head
1620 1091	1.000000 Head
1621 1026	1.000000 Head
1623 1034	1.000000 Head
1624 1034	1.000000 Head
1625 1012	1.000000 Head
1627 1021	1.000000 Head
1628 1033	1.000000 Head
1629 1033	1.000000 Head
1630 1033	1.000000 Head
1631 1090	1.000000 Head
1632 1068	1.000000 Head
1637 1001	1.000000 Head
1640 1132	1.000000 Head
1643 1105	1.000000 Head
1644 1102	1.000000 Head
1647 1014	1.000000 Head
1648 1050	1.000000 Head
1649 1080	1.000000 Head
1650 1130	1.000000 Head
1652 1080	1.000000 Head
1653 1102	1.000000 Head
1655 1090	1.000000 Head
1656 1033	1.000000 Head
1657 1051	1.000000 Head
1660 1101	1.000000 Head
1661 1101	1.000000 Head
1665 1232	1.000000 Head
1668 1105	1.000000 Head
1669 1100	1.000000 Head
1670 1058	1.000000 Head
1673 1094	1.000000 Head
1677 1065	1.000000 Head
1678 1112	1.000000 Head
1679 1020	1.000000 Head
1680 1082	1.000000 Head
1682 1128	1.000000 Head
1683 1059	1.000000 Head
1684 1110	1.000000 Head
1686 1128	1.000000 Head
1687 998	1.000000 Head
1688 977	1.000000 Head
1689 1005	1.000000 Head
1692 1189	1.000000 Head
1693 1154	1.000000 Head
1696 1120	1.000000 Head
1697 1038	1.000000 Head
1698 1076	1.000000 Head
1699 1081	1.000000 Head
1700 1054	1.000000 Head
1702 981	1.000000 Head
1703 1100	1.000000 Head
1705 1160	1.000000 Head
1706 1100	1.000000 Head
1707 1153	1.000000 Head
1708 1082	1.000000 Head
1709 1133	1.000000 Head
1712 1090	1.000000 Head
1715 1089	1.000000 Head
1717 1010	1.000000 Head
1720 1068	1.000000 Head
1729 1110	1.000000 Head
1732 1118	1.000000 Head
1733 1085	1.000000 Head
1734 1123	1.000000 Head
1735 1100	1.000000 Head
1736 1098	1.000000 Head
1737 1142	1.000000 Head
1738 1153	1.000000 Head
1739 1141	1.000000 Head
1741 1053	1.000000 Head
1747 1110	1.000000 Head
1749 1102	1.000000 Head
1753 1135	1.000000 Head
1754 1152	1.000000 Head
1755 1101	1.000000 Head
1757 1060	1.000000 Head
1758 1037	1.000000 Head
1759 1033	1.000000 Head
1762 1094	1.000000 Head
1763 1126	1.000000 Head
1765 1116	1.000000 Head
1770 1012	1.000000 Head
1775 1310	1.000000 Head
1776 1130	1.000000 Head
1779 1108	1.000000 Head
1780 1141	1.000000 Head
1781 1108	1.000000 Head
1782 1120	1.000000 Head
1783 1042	1.000000 Head
1784 1121	1.000000 Head
1786 1258	1.000000 Head
1787 1101	1.000000 Head
1789 1109	1.000000 Head
1791 1171	1.000000 Head
1793 1165	1.000000 Head
1794 1091	1.000000 Head
1795 1171	1.000000 Head
1796 1012	1.000000 Head
1797 1034	1.000000 Head
1800 1171	1.000000 Head
1804 1090	1.000000 Head
1805 1244	1.000000 Head
1809 1031	1.000000 Head
1810 1019	1.000000 Head
1811 1117	1.000000 Head
1813 1141	1.000000 Head
1814 1110	1.000000 Head
1815 1105	1.000000 Head
1817 1102	1.000000 Head
1818 1130	1.000000 Head
1821 1065	1.000000 Head
1822 1138	1.000000 Head
1824 1122	1.000000 Head
1825 1082	1.000000 Head
1826 1120	1.000000 Head
1827 1162	1.000000 Head
1829 1126	1.000000 Head
1830 1102	1.000000 Head
1831 1165	1.000000 Head
1835 1115	1.000000 Head
1837 963	1.000000 Head
1840 993	1.000000 Head
1841 1112	1.000000 Head
1842 1112	1.000000 Head
1844 1090	1.000000 Head
1847 1156	1.000000 Head
1848 1074	1.000000 Head
1849 1099	1.000000 Head
1851 982	1.000000 Head
1852 980	1.000000 Head
1854 1090	1.000000 Head
1856 1098	1.000000 Head
1859 1102	1.000000 Head
1860 992	1.000000 Head
1861 1053	1.000000 Head
1864 1130	1.000000 Head
1865 1130	1.000000 Head
1866 1141	1.000000 Head
1867 1075	1.000000 Head
1868 1030	1.000000 Head
1870 1131	1.000000 Head
1871 1121	1.000000 Head
1874 1093	1.000000 Head
1878 1195	1.000000 Head
1879 1112	1.000000 Head
1883 1214	1.000000 Head
1884 1111	1.000000 Head
1886 963	1.000000 Head
1888 1112	1.000000 Head
1889 1109	1.000000 Head
1892 1035	1.000000 Head
1893 1035	1.000000 Head
1894 1035	1.000000 Head
1896 1104	1.000000 Head
1897 1152	1.000000 Head
1898 965	1.000000 Head
1901 1103	1.000000 Head
1902 1089	1.000000 Head
1904 1144	1.000000 Head
1905 1014	1.000000 Head
1907 1096	1.000000 Head
1908 1140	1.000000 Head
1912 1151	1.000000 Head
1913 1102	1.000000 Head
1916 1133	1.000000 Head
1917 1141	1.000000 Head
1918 1151	1.000000 Head
1919 1005	1.000000 Head
1922 1137	1.000000 Head
1923 1044	1.000000 Head
1926 1233	1.000000 Head
1927 1108	1.000000 Head
1928 1142	1.000000 Head
1929 1115	1.000000 Head
1931 1060	1.000000 Head
1932 1031	1.000000 Head
1933 1132	1.000000 Head
1934 1119	1.000000 Head
1939 1070	1.000000 Head
1944 1105	1.000000 Head
1945 1099	1.000000 Head
1946 1020	1.000000 Head
1947 1141	1.000000 Head
1949 1021	1.000000 Head
1950 1085	1.000000 Head
1951 1073	1.000000 Head
1952 1125	1.000000 Head
1953 1186	1.000000 Head
1956 1054	1.000000 Head
1959 1070	1.000000 Head
1960 1205	1.000000 Head
1961 1034	1.000000 Head
1963 1085	1.000000 Head
1964 1004	1.000000 Head
1965 1097	1.000000 Head
1966 1089	1.000000 Head
1967 1102	1.000000 Head
1970 1117	1.000000 Head
1971 1133	1.000000 Head
1972 1044	1.000000 Head
1973 1090	1.000000 Head
1975 1109	1.000000 Head
1976 1122	1.000000 Head
1977 1015	1.000000 Head
1984 1128	1.000000 Head
1985 981	1.000000 Head
1986 1131	1.000000 Head
1988 964	1.000000 Head
1990 1091	1.000000 Head
1994 1109	1.000000 Head
1995 1088	1.000000 Head
1996 1140	1.000000 Head
1997 1129	1.000000 Head
1999 1085	1.000000 Head
2000 1031	1.000000 Head
2001 1040	1.000000 Head
2002 1058	1.000000 Head
2004 1054	1.000000 Head
2005 1160	1.000000 Head
2008 1146	1.000000 Head
2009 1057	1.000000 Head
2010 1033	1.000000 Head
2011 1035	1.000000 Head
2012 1090	1.000000 Head
2014 1031	1.000000 Head
2015 1031	1.000000 Head
2016 1031	1.000000 Head
2017 1082	1.000000 Head
2018 1041	1.000000 Head
2019 1082	1.000000 Head
2020 1116	1.000000 Head
2023 1018	1.000000 Head
2024 1007	1.000000 Head
2025 1146	1.000000 Head
2027 1125	1.000000 Head
2028 1211	1.000000 Head
2030 1095	1.000000 Head
2032 993	1.000000 Head
2035 1030	1.000000 Head
2036 1103	1.000000 Head
2038 1080	1.000000 Head
2040 991	1.000000 Head
2042 1133	1.000000 Head
2045 1088	1.000000 Head
2046 1039	1.000000 Head
2047 1120	1.000000 Head
2048 1102	1.000000 Head
2049 1132	1.000000 Head
2051 982	1.000000 Head
2053 1109	1.000000 Head
2054 1088	1.000000 Head
2055 1132	1.000000 Head
2057 1011	1.000000 Head
2058 1119	1.000000 Head
2059 1110	1.000000 Head
2062 1202	1.000000 Head
2065 1131	1.000000 Head
2066 1094	1.000000 Head
2068 1082	1.000000 Head
2078 1101	1.000000 Head
2079 1035	1.000000 Head
2080 1090	1.000000 Head
2085 989	1.000000 Head
2086 1107	1.000000 Head
2088 1064	1.000000 Head
2090 1138	1.000000 Head
2091 1025	1.000000 Head
2092 1095	1.000000 Head
2093 1085	1.000000 Head
2094 1033	1.000000 Head
2097 1122	1.000000 Head
2098 1146	1.000000 Head
2099 1156	1.000000 Head
2100 1168	1.000000 Head
2102 1063	1.000000 Head
2103 1112	1.000000 Head
2104 1108	1.000000 Head
2105 1172	1.000000 Head
2106 1172	1.000000 Head
2107 1081	1.000000 Head
2108 1145	1.000000 Head
2111 1021	1.000000 Head
2113 1036	1.000000 Head
2114 1222	1.000000 Head
2115 1132	1.000000 Head
2116 1053	1.000000 Head
2117 1112	1.000000 Head
2118 1115	1.000000 Head
2119 1139	1.000000 Head
2120 1151	1.000000 Head
2121 1033	1.000000 Head
2122 1033	1.000000 Head
2123 1033	1.000000 Head
2124 1032	1.000000 Head
2125 1033	1.000000 Head
2126 1032	1.000000 Head
2127 1002	1.000000 Head
2128 1032	1.000000 Head
2129 1041	1.000000 Head
2130 1097	1.000000 Head
2131 1062	1.000000 Head
2132 1034	1.000000 Head
2133 1042	1.000000 Head
2134 1082	1.000000 Head
2135 1031	1.000000 Head
2136 1036	1.000000 Head
2137 1045	1.000000 Head
2138 1091	1.000000 Head
2139 1090	1.000000 Head
2140 1095	1.000000 Head
2142 1100	1.000000 Head
2144 1042	1.000000 Head
2145 1088	1.000000 Head
2147 1160	1.000000 Head
2148 1148	1.000000 Head
2149 1114	1.000000 Head
2845 1100.62	1.000000 Head
2846 1249.31	1.000000 Head
2855 1302.29	1.000000 Head
2856 1309.06	1.000000 Head
2866 1301	1.000000 Head
2867 1288	1.000000 Head
2869 1262	1.000000 Head
2870 1105	1.000000 Head
2871 1303	1.000000 Head
2872 1344	1.000000 Head
2873 1098	1.000000 Head
2874 1274	1.000000 Head
2876 1282	1.000000 Head
2877 1128	1.000000 Head
2878 1253	1.000000 Head
2880 1252	1.000000 Head
2881 1258	1.000000 Head
2882 1255	1.000000 Head
2884 1233	1.000000 Head
2885 1292	1.000000 Head
2886 1260	1.000000 Head
2887 1200	1.000000 Head
2888 1209	1.000000 Head
2891 1305	1.000000 Head
3342 1061	1.000000 Head
3343 1280	1.000000 Head
3344 1312	1.000000 Head
3345 1168	1.000000 Head
3346 1124	1.000000 Head
3347 1219	1.000000 Head
3348 1276	1.000000 Head
3349 1230	1.000000 Head
3350 1158	1.000000 Head
3351 1103	1.000000 Head
3352 1126	1.000000 Head
3353 1076	1.000000 Head
3354 1226	1.000000 Head
3355 1297	1.000000 Head
3356 1240	1.000000 Head
3357 1170	1.000000 Head
3358 1320	1.000000 Head
3359 1180	1.000000 Head
3360 1300	1.000000 Head
3361 1163	1.000000 Head
3362 1116	1.000000 Head
3363 1242	1.000000 Head
3364 1100	1.000000 Head
3365 1253	1.000000 Head
3366 1047	1.000000 Head
3367 1316	1.000000 Head
3368 1113	1.000000 Head
3369 1063	1.000000 Head
3370 1240	1.000000 Head
3371 1078	1.000000 Head
3372 1321	1.000000 Head
3373 1133	1.000000 Head
3374 1121	1.000000 Head
3375 1226	1.000000 Head
3376 1109	1.000000 Head
3377 1305	1.000000 Head
3378 1327	1.000000 Head
3379 1149	1.000000 Head
3380 1263	1.000000 Head
3381 1319	1.000000 Head
3382 1102	1.000000 Head
3383 1085	1.000000 Head
3384 1108	1.000000 Head
3385 1087	1.000000 Head
3386 1089	1.000000 Head
3387 1250	1.000000 Head
3388 1266	1.000000 Head
3389 1240	1.000000 Head
3390 1317	1.000000 Head
3391 1286	1.000000 Head
3392 1168	1.000000 Head
3393 1099	1.000000 Head
3394 1131	1.000000 Head
3395 1123	1.000000 Head
3396 1290	1.000000 Head
3397 1233	1.000000 Head
3398 1080	1.000000 Head
3399 1091	1.000000 Head
3400 1270	1.000000 Head
3401 1281	1.000000 Head
3402 1103	1.000000 Head
3403 1110	1.000000 Head
3404 1059	1.000000 Head
3405 1117	1.000000 Head
3406 1084	1.000000 Head
3407 1284	1.000000 Head
3408 1094	1.000000 Head
3409 1138	1.000000 Head
3410 1122	1.000000 Head
3411 1097	1.000000 Head
3412 1295	1.000000 Head
3413 1251	1.000000 Head
3414 1145	1.000000 Head
3415 1316	1.000000 Head
3416 1093	1.000000 Head
3417 1143	1.000000 Head
3418 1051	1.000000 Head
3419 1085	1.000000 Head
3420 1177	1.000000 Head
3421 1117	1.000000 Head
3422 1174	1.000000 Head
3423 1170	1.000000 Head
3424 1082	1.000000 Head
3425 1313	1.000000 Head
3426 1060	1.000000 Head
3427 1183	1.000000 Head
3428 1322	1.000000 Head
3429 1106	1.000000 Head
3430 1140	1.000000 Head
3431 1229	1.000000 Head
3432 1174	1.000000 Head
3433 1241	1.000000 Head
3434 1067	1.000000 Head
3435 1291	1.000000 Head
3436 1300	1.000000 Head
3437 1091	1.000000 Head
3438 1322	1.000000 Head
3439 1136	1.000000 Head
3440 1201	1.000000 Head
3441 1082	1.000000 Head
3442 1069	1.000000 Head
3443 1169	1.000000 Head
3444 1155	1.000000 Head
3445 1120	1.000000 Head
3446 1121	1.000000 Head
3447 1155	1.000000 Head
3448 1318	1.000000 Head
3449 1310	1.000000 Head
3450 1121	1.000000 Head
3451 1208	1.000000 Head
3452 1208	1.000000 Head
3453 1320	1.000000 Head
3454 1122	1.000000 Head
3455 1100	1.000000 Head
3456 1143	1.000000 Head
3457 1209	1.000000 Head
3458 1154	1.000000 Head
3459 1164	1.000000 Head
3460 1098	1.000000 Head
3461 1243	1.000000 Head
3462 1266	1.000000 Head
3463 1212	1.000000 Head
3464 1300	1.000000 Head
3465 1195	1.000000 Head
3466 1091	1.000000 Head
3467 1201	1.000000 Head
3468 1331	1.000000 Head
3469 1327	1.000000 Head
3470 1301	1.000000 Head
3471 1256	1.000000 Head
3472 1283	1.000000 Head
3473 1152	1.000000 Head
3474 1163	1.000000 Head
3475 1102	1.000000 Head
3476 1229	1.000000 Head
3477 1110	1.000000 Head
3478 1270	1.000000 Head