pcf
* control data
restart estimation
2 66 2 0 2
1  1  double  point  1  0  0
1.000000e+001  2.000000e+000  3.000000e-001  1.000000e-002  10
1.000000e+001  1.000000e+001  1.000000e-003
1.000000e-001 noaui
25  1.000000e-002  3  3  1.000000e-002  3 **** CONTROLS OPTIMIZATION: SEE PEST MANUAL ****
1  1  1
* parameter groups
Kh     relative   1.000000e-002  0.000000e+000  switch  2.000000e+000  parabolic
Rch    relative   1.000000e-002  0.000000e+000  switch  2.000000e+000  parabolic
* parameter data
Kkinni______	log   factor   10	 .435	 43.5	Kh     1.0      0.0 1
Rsouth______	none  factor   .001825585	 .0001825585	 .01825585	Rch    -1.0     0.0 1
* observation groups
Head
Streamflow
* observation data
3887 986	0.100000 Head
3896 943	0.100000 Head
3918 976	0.100000 Head
3919 1044	0.100000 Head
3945 1175	0.100000 Head
3956 1021	0.100000 Head
3964 1002	0.100000 Head
3965 1002	0.100000 Head
3992 671	0.100000 Head
3994 932	0.100000 Head
4074 880	0.100000 Head
4075 945	0.100000 Head
4076 967	0.100000 Head
4078 903	0.100000 Head
4079 945	0.100000 Head
4241 928	0.100000 Head
4244 950	0.100000 Head
4246 1021	0.100000 Head
4247 903	0.100000 Head
4248 960	0.100000 Head
4249 1017	0.100000 Head
4253 903	0.100000 Head
4254 1051	0.100000 Head
4258 960	0.100000 Head
4259 980	0.100000 Head
4299 911	0.100000 Head
4301 988	0.100000 Head
4488 1010	0.100000 Head
4491 979	0.100000 Head
4514 899	0.100000 Head
4551 911	0.100000 Head
4552 946	0.100000 Head
4553 1036	0.100000 Head
4555 1029	0.100000 Head
4556 956	0.100000 Head
4557 1029	0.100000 Head
4558 1001	0.100000 Head
4560 974	0.100000 Head
4561 904	0.100000 Head
4563 959	0.100000 Head
4564 967	0.100000 Head
4565 940	0.100000 Head
4566 935	0.100000 Head
4567 921	0.100000 Head
4568 919	0.100000 Head
4570 919	0.100000 Head
4572 919	0.100000 Head
4573 939	0.100000 Head
4583 945	0.100000 Head
4584 953	0.100000 Head
4585 986	0.100000 Head
4676 899	0.100000 Head
4733 1056	0.100000 Head
4736 805	0.100000 Head
4739 971	0.100000 Head
4740 936	0.100000 Head
4741 1013	0.100000 Head
4742 995	0.100000 Head
4743 995	0.100000 Head
4744 945	0.100000 Head
4745 979	0.100000 Head
4746 921	0.100000 Head
4747 988	0.100000 Head
4748 1023	0.100000 Head
4749 960	0.100000 Head
Kinni 7801920	0.000010 Streamflow
* model command line
G-PEST.bat
* model input/output
kinniPST.tpl kinniPST.DAT
kinniPST.ins kinniPST.XTR
