pcf
* control data
 restart regularisation
     969      97       5   20412       5
4  2  single  point  1  0  0
2.000000e+001  -3.000000e+000  3.000000e-001  1.000000e-002  7 999 lamforgive
1.000000e+001  1.000000e+001  1.000000e-003
1.000000e-001 1 noaui noboundscale
30  1.000000e-002  3  3  1.000000e-002  3
0  0  0   PARSAVEITN
* singular value decomposition
  1
  968  5.000000e-007
  1
* parameter groups
Kxp     relative   1.000000e-002  0.000000e+000  switch  2.000000e+000  parabolic 1.0e-5 0.5 smaller
Kzp     relative   1.000000e-002  0.000000e+000  switch  2.000000e+000  parabolic 1.0e-5 0.5 smaller
Kx     relative   1.000000e-002  0.000000e+000  switch  2.000000e+000  parabolic 1.0e-5 0.5 smaller
Kz     relative   1.000000e-002  0.000000e+000  switch  2.000000e+000  parabolic 1.0e-5 0.5 smaller
Rch relative   1.000000e-002  0.000000e+000  switch  2.000000e+000  parabolic 1.0e-5 0.5 smaller
* parameter data
rm1 log factor 2.533 0.25 5.0 Rch 1 0 1
Kx1 log factor 20.0 1.0 50.0 Kx 1 0 1
Kx2 log factor 25.0 1.0 50.0 Kx 1 0 1
Kx3 log factor 25.0 1.0 50.0 Kx 1 0 1
Kx4 log factor 1.0 0.1 10.0 Kx 1 0 1
Kx5 log factor 33.0 1.0 50.0 Kx 1 0 1
Kx6 log factor 15.0 1.0 50.0 Kx 1 0 1
Kx7 log factor 70.0 1.0 150.0 Kx 1 0 1
Kx8 log factor 1.0 0.1 10.0 Kx 1 0 1
Kz1 log factor 2.0 0.10 5.0 Kz 1 0 1
Kz2 log factor 2.50 0.10 5.0  Kz 1 0 1
Kz3 log factor 2.50 0.10 5.0  Kz 1 0 1
Kz4 log factor 0.10 0.01 1.0 Kz 1 0 1
Kz5 log factor 33.0 1.0 50.0 Kz 1 0 1
Kz6 log factor 15.0 1.0 50.0 Kz 1 0 1
Kz7 log factor 70.0 1.0 150.0 Kz 1 0 1
Kz8 log factor 1.0 0.1 10.0 Kz 1 0 1
KpKx1  log  factor  2.30E+02  1.80E+02  5.00E+02  Kxp  1  0  1
KpKx2  log  factor  2.30E+02  1.80E+02  5.00E+02  Kxp  1  0  1
KpKx3  log  factor  2.30E+02  1.80E+02  5.00E+02  Kxp  1  0  1
KpKx4  log  factor  2.30E+02  1.80E+02  5.00E+02  Kxp  1  0  1
KpKx5  log  factor  2.30E+02  1.80E+02  5.00E+02  Kxp  1  0  1
KpKx6  log  factor  2.30E+02  1.80E+02  5.00E+02  Kxp  1  0  1
KpKx7  log  factor  2.30E+02  1.80E+02  5.00E+02  Kxp  1  0  1
KpKx8  log  factor  2.30E+02  1.80E+02  5.00E+02  Kxp  1  0  1
KpKx9  log  factor  2.30E+02  1.80E+02  5.00E+02  Kxp  1  0  1
KpKx10  log  factor  2.30E+02  1.80E+02  5.00E+02  Kxp  1  0  1
KpKx11  log  factor  2.30E+02  1.80E+02  5.00E+02  Kxp  1  0  1
KpKx12  log  factor  2.30E+02  1.80E+02  5.00E+02  Kxp  1  0  1
KpKx13  log  factor  2.30E+02  1.80E+02  5.00E+02  Kxp  1  0  1
KpKx14  log  factor  2.30E+02  1.80E+02  5.00E+02  Kxp  1  0  1
KpKx15  log  factor  2.30E+02  1.80E+02  5.00E+02  Kxp  1  0  1
KpKx16  log  factor  2.30E+02  1.80E+02  5.00E+02  Kxp  1  0  1
KpKx17  log  factor  2.30E+02  1.80E+02  5.00E+02  Kxp  1  0  1
KpKx18  log  factor  2.30E+02  1.80E+02  5.00E+02  Kxp  1  0  1
KpKx19  log  factor  2.30E+02  1.80E+02  5.00E+02  Kxp  1  0  1
KpKx20  log  factor  2.30E+02  1.80E+02  5.00E+02  Kxp  1  0  1
KpKx21  log  factor  2.30E+02  1.80E+02  5.00E+02  Kxp  1  0  1
KpKx22  log  factor  2.30E+02  1.80E+02  5.00E+02  Kxp  1  0  1
KpKx23  log  factor  2.30E+02  1.80E+02  5.00E+02  Kxp  1  0  1
KpKx24  log  factor  2.30E+02  1.80E+02  5.00E+02  Kxp  1  0  1
KpKx25  log  factor  2.30E+02  1.80E+02  5.00E+02  Kxp  1  0  1
KpKx26  log  factor  2.30E+02  1.80E+02  5.00E+02  Kxp  1  0  1
KpKx27  log  factor  2.30E+02  1.80E+02  5.00E+02  Kxp  1  0  1
KpKx28  log  factor  2.30E+02  1.80E+02  5.00E+02  Kxp  1  0  1
KpKx29  log  factor  2.30E+02  1.80E+02  5.00E+02  Kxp  1  0  1
KpKx30  log  factor  2.30E+02  1.80E+02  5.00E+02  Kxp  1  0  1
KpKx31  log  factor  2.30E+02  1.80E+02  5.00E+02  Kxp  1  0  1
KpKx32  log  factor  2.30E+02  1.80E+02  5.00E+02  Kxp  1  0  1
KpKx33  log  factor  2.30E+02  1.80E+02  5.00E+02  Kxp  1  0  1
KpKx34  log  factor  2.30E+02  1.80E+02  5.00E+02  Kxp  1  0  1
KpKx35  log  factor  2.30E+02  1.80E+02  5.00E+02  Kxp  1  0  1
KpKx36  log  factor  2.30E+02  1.80E+02  5.00E+02  Kxp  1  0  1
KpKx37  log  factor  2.30E+02  1.80E+02  5.00E+02  Kxp  1  0  1
KpKx38  log  factor  2.30E+02  1.80E+02  5.00E+02  Kxp  1  0  1
KpKx39  log  factor  2.30E+02  1.80E+02  5.00E+02  Kxp  1  0  1
KpKx40  log  factor  2.30E+02  1.80E+02  5.00E+02  Kxp  1  0  1
KpKx41  log  factor  2.30E+02  1.80E+02  5.00E+02  Kxp  1  0  1
KpKx42  log  factor  2.30E+02  1.80E+02  5.00E+02  Kxp  1  0  1
KpKx43  log  factor  2.30E+02  1.80E+02  5.00E+02  Kxp  1  0  1
KpKx44  log  factor  2.30E+02  1.80E+02  5.00E+02  Kxp  1  0  1
KpKx45  log  factor  2.30E+02  1.80E+02  5.00E+02  Kxp  1  0  1
KpKx46  log  factor  2.30E+02  1.80E+02  5.00E+02  Kxp  1  0  1
KpKx47  log  factor  2.30E+02  1.80E+02  5.00E+02  Kxp  1  0  1
KpKx48  log  factor  2.30E+02  1.80E+02  5.00E+02  Kxp  1  0  1
KpKx49  log  factor  2.30E+02  1.80E+02  5.00E+02  Kxp  1  0  1
KpKx50  log  factor  2.30E+02  1.80E+02  5.00E+02  Kxp  1  0  1
KpKx51  log  factor  2.30E+02  1.80E+02  5.00E+02  Kxp  1  0  1
KpKx52  log  factor  2.30E+02  1.80E+02  5.00E+02  Kxp  1  0  1
KpKx53  log  factor  2.30E+02  1.80E+02  5.00E+02  Kxp  1  0  1
KpKx54  log  factor  2.30E+02  1.80E+02  5.00E+02  Kxp  1  0  1
KpKx55  log  factor  2.30E+02  1.80E+02  5.00E+02  Kxp  1  0  1
KpKx56  log  factor  2.30E+02  1.80E+02  5.00E+02  Kxp  1  0  1
KpKx57  log  factor  2.30E+02  1.80E+02  5.00E+02  Kxp  1  0  1
KpKx58  log  factor  2.30E+02  1.80E+02  5.00E+02  Kxp  1  0  1
KpKx59  log  factor  2.30E+02  1.80E+02  5.00E+02  Kxp  1  0  1
KpKx60  log  factor  2.30E+02  1.80E+02  5.00E+02  Kxp  1  0  1
KpKx61  log  factor  2.30E+02  1.80E+02  5.00E+02  Kxp  1  0  1
KpKx62  log  factor  2.30E+02  1.80E+02  5.00E+02  Kxp  1  0  1
KpKx63  log  factor  2.30E+02  1.80E+02  5.00E+02  Kxp  1  0  1
KpKx64  log  factor  2.30E+02  1.80E+02  5.00E+02  Kxp  1  0  1
KpKx65  log  factor  2.30E+02  1.80E+02  5.00E+02  Kxp  1  0  1
KpKx66  log  factor  2.30E+02  1.80E+02  5.00E+02  Kxp  1  0  1
KpKx67  log  factor  2.30E+02  1.80E+02  5.00E+02  Kxp  1  0  1
KpKx68  log  factor  2.30E+02  1.80E+02  5.00E+02  Kxp  1  0  1
KpKx69  log  factor  2.30E+02  1.80E+02  5.00E+02  Kxp  1  0  1
KpKx70  log  factor  2.30E+02  1.80E+02  5.00E+02  Kxp  1  0  1
KpKx71  log  factor  2.30E+02  1.80E+02  5.00E+02  Kxp  1  0  1
KpKx72  log  factor  2.30E+02  1.80E+02  5.00E+02  Kxp  1  0  1
KpKx73  log  factor  2.30E+02  1.80E+02  5.00E+02  Kxp  1  0  1
KpKx74  log  factor  2.30E+02  1.80E+02  5.00E+02  Kxp  1  0  1
KpKx75  log  factor  2.30E+02  1.80E+02  5.00E+02  Kxp  1  0  1
KpKx76  log  factor  2.30E+02  1.80E+02  5.00E+02  Kxp  1  0  1
KpKx77  log  factor  2.30E+02  1.80E+02  5.00E+02  Kxp  1  0  1
KpKx78  log  factor  2.30E+02  1.80E+02  5.00E+02  Kxp  1  0  1
KpKx79  log  factor  2.30E+02  1.80E+02  5.00E+02  Kxp  1  0  1
KpKx80  log  factor  2.30E+02  1.80E+02  5.00E+02  Kxp  1  0  1
KpKx81  log  factor  2.30E+02  1.80E+02  5.00E+02  Kxp  1  0  1
KpKx82  log  factor  2.30E+02  1.80E+02  5.00E+02  Kxp  1  0  1
KpKx83  log  factor  2.30E+02  1.80E+02  5.00E+02  Kxp  1  0  1
KpKx84  log  factor  2.30E+02  1.80E+02  5.00E+02  Kxp  1  0  1
KpKx85  log  factor  2.30E+02  1.80E+02  5.00E+02  Kxp  1  0  1
KpKx86  log  factor  2.30E+02  1.80E+02  5.00E+02  Kxp  1  0  1
KpKx87  log  factor  2.30E+02  1.80E+02  5.00E+02  Kxp  1  0  1
KpKx88  log  factor  2.30E+02  1.80E+02  5.00E+02  Kxp  1  0  1
KpKx89  log  factor  2.30E+02  1.80E+02  5.00E+02  Kxp  1  0  1
KpKx90  log  factor  2.30E+02  1.80E+02  5.00E+02  Kxp  1  0  1
KpKx91  log  factor  2.30E+02  1.80E+02  5.00E+02  Kxp  1  0  1
KpKx92  log  factor  2.30E+02  1.80E+02  5.00E+02  Kxp  1  0  1
KpKx93  log  factor  2.30E+02  1.80E+02  5.00E+02  Kxp  1  0  1
KpKx94  log  factor  2.30E+02  1.80E+02  5.00E+02  Kxp  1  0  1
KpKx95  log  factor  2.30E+02  1.80E+02  5.00E+02  Kxp  1  0  1
KpKx96  log  factor  2.30E+02  1.80E+02  5.00E+02  Kxp  1  0  1
KpKx97  log  factor  2.30E+02  1.80E+02  5.00E+02  Kxp  1  0  1
KpKx98  log  factor  2.30E+02  1.80E+02  5.00E+02  Kxp  1  0  1
KpKx99  log  factor  2.30E+02  1.80E+02  5.00E+02  Kxp  1  0  1
KpKx100  log  factor  2.30E+02  1.80E+02  5.00E+02  Kxp  1  0  1
KpKx101  log  factor  2.30E+02  1.80E+02  5.00E+02  Kxp  1  0  1
KpKx102  log  factor  2.30E+02  1.80E+02  5.00E+02  Kxp  1  0  1
KpKx103  log  factor  2.30E+02  1.80E+02  5.00E+02  Kxp  1  0  1
KpKx104  log  factor  2.30E+02  1.80E+02  5.00E+02  Kxp  1  0  1
KpKx105  log  factor  2.30E+02  1.80E+02  5.00E+02  Kxp  1  0  1
KpKx106  log  factor  2.30E+02  1.80E+02  5.00E+02  Kxp  1  0  1
KpKx107  log  factor  2.30E+02  1.80E+02  5.00E+02  Kxp  1  0  1
KpKx108  log  factor  2.30E+02  1.80E+02  5.00E+02  Kxp  1  0  1
KpKx109  log  factor  2.30E+02  1.80E+02  5.00E+02  Kxp  1  0  1
KpKx110  log  factor  2.30E+02  1.80E+02  5.00E+02  Kxp  1  0  1
KpKx111  log  factor  2.30E+02  1.80E+02  5.00E+02  Kxp  1  0  1
KpKx112  log  factor  2.30E+02  1.80E+02  5.00E+02  Kxp  1  0  1
KpKx113  log  factor  2.30E+02  1.80E+02  5.00E+02  Kxp  1  0  1
KpKx114  log  factor  2.30E+02  1.80E+02  5.00E+02  Kxp  1  0  1
KpKx115  log  factor  2.30E+02  1.80E+02  5.00E+02  Kxp  1  0  1
KpKx116  log  factor  2.30E+02  1.80E+02  5.00E+02  Kxp  1  0  1
KpKx117  log  factor  2.30E+02  1.80E+02  5.00E+02  Kxp  1  0  1
KpKx118  log  factor  2.30E+02  1.80E+02  5.00E+02  Kxp  1  0  1
KpKx119  log  factor  2.30E+02  1.80E+02  5.00E+02  Kxp  1  0  1
KpKx120  log  factor  2.30E+02  1.80E+02  5.00E+02  Kxp  1  0  1
KpKx121  log  factor  2.30E+02  1.80E+02  5.00E+02  Kxp  1  0  1
KpKx122  log  factor  2.30E+02  1.80E+02  5.00E+02  Kxp  1  0  1
KpKx123  log  factor  2.30E+02  1.80E+02  5.00E+02  Kxp  1  0  1
KpKx124  log  factor  2.30E+02  1.80E+02  5.00E+02  Kxp  1  0  1
KpKx125  log  factor  2.30E+02  1.80E+02  5.00E+02  Kxp  1  0  1
KpKx126  log  factor  2.30E+02  1.80E+02  5.00E+02  Kxp  1  0  1
KpKx127  log  factor  2.30E+02  1.80E+02  5.00E+02  Kxp  1  0  1
KpKx128  log  factor  2.30E+02  1.80E+02  5.00E+02  Kxp  1  0  1
KpKx129  log  factor  2.30E+02  1.80E+02  5.00E+02  Kxp  1  0  1
KpKx130  log  factor  2.30E+02  1.80E+02  5.00E+02  Kxp  1  0  1
KpKx131  log  factor  2.30E+02  1.80E+02  5.00E+02  Kxp  1  0  1
KpKx132  log  factor  2.30E+02  1.80E+02  5.00E+02  Kxp  1  0  1
KpKx133  log  factor  2.30E+02  1.80E+02  5.00E+02  Kxp  1  0  1
KpKx134  log  factor  2.30E+02  1.80E+02  5.00E+02  Kxp  1  0  1
KpKx135  log  factor  2.30E+02  1.80E+02  5.00E+02  Kxp  1  0  1
KpKx136  log  factor  2.30E+02  1.80E+02  5.00E+02  Kxp  1  0  1
KpKx137  log  factor  2.30E+02  1.80E+02  5.00E+02  Kxp  1  0  1
KpKx138  log  factor  2.30E+02  1.80E+02  5.00E+02  Kxp  1  0  1
KpKx139  log  factor  2.30E+02  1.80E+02  5.00E+02  Kxp  1  0  1
KpKx140  log  factor  2.30E+02  1.80E+02  5.00E+02  Kxp  1  0  1
KpKx141  log  factor  2.30E+02  1.80E+02  5.00E+02  Kxp  1  0  1
KpKx142  log  factor  2.30E+02  1.80E+02  5.00E+02  Kxp  1  0  1
KpKx143  log  factor  2.30E+02  1.80E+02  5.00E+02  Kxp  1  0  1
KpKx144  log  factor  2.30E+02  1.80E+02  5.00E+02  Kxp  1  0  1
KpKx145  log  factor  2.30E+02  1.80E+02  5.00E+02  Kxp  1  0  1
KpKx146  log  factor  2.30E+02  1.80E+02  5.00E+02  Kxp  1  0  1
KpKx147  log  factor  2.30E+02  1.80E+02  5.00E+02  Kxp  1  0  1
KpKx148  log  factor  2.30E+02  1.80E+02  5.00E+02  Kxp  1  0  1
KpKx149  log  factor  2.30E+02  1.80E+02  5.00E+02  Kxp  1  0  1
KpKx150  log  factor  2.30E+02  1.80E+02  5.00E+02  Kxp  1  0  1
KpKx151  log  factor  2.30E+02  1.80E+02  5.00E+02  Kxp  1  0  1
KpKx152  log  factor  2.30E+02  1.80E+02  5.00E+02  Kxp  1  0  1
KpKx153  log  factor  2.30E+02  1.80E+02  5.00E+02  Kxp  1  0  1
KpKx154  log  factor  2.30E+02  1.80E+02  5.00E+02  Kxp  1  0  1
KpKx155  log  factor  2.30E+02  1.80E+02  5.00E+02  Kxp  1  0  1
KpKx156  log  factor  2.30E+02  1.80E+02  5.00E+02  Kxp  1  0  1
KpKx157  log  factor  2.30E+02  1.80E+02  5.00E+02  Kxp  1  0  1
KpKx158  log  factor  2.30E+02  1.80E+02  5.00E+02  Kxp  1  0  1
KpKx159  log  factor  2.30E+02  1.80E+02  5.00E+02  Kxp  1  0  1
KpKx160  log  factor  2.30E+02  1.80E+02  5.00E+02  Kxp  1  0  1
KpKx161  log  factor  2.30E+02  1.80E+02  5.00E+02  Kxp  1  0  1
KpKx162  log  factor  2.30E+02  1.80E+02  5.00E+02  Kxp  1  0  1
KpKx163  log  factor  2.30E+02  1.80E+02  5.00E+02  Kxp  1  0  1
KpKx164  log  factor  2.30E+02  1.80E+02  5.00E+02  Kxp  1  0  1
KpKx165  log  factor  2.30E+02  1.80E+02  5.00E+02  Kxp  1  0  1
KpKx166  log  factor  2.30E+02  1.80E+02  5.00E+02  Kxp  1  0  1
KpKx167  log  factor  2.30E+02  1.80E+02  5.00E+02  Kxp  1  0  1
KpKx168  log  factor  2.30E+02  1.80E+02  5.00E+02  Kxp  1  0  1
KpKx169  log  factor  2.30E+02  1.80E+02  5.00E+02  Kxp  1  0  1
KpKx170  log  factor  2.30E+02  1.80E+02  5.00E+02  Kxp  1  0  1
KpKx171  log  factor  2.30E+02  1.80E+02  5.00E+02  Kxp  1  0  1
KpKx172  log  factor  2.30E+02  1.80E+02  5.00E+02  Kxp  1  0  1
KpKx173  log  factor  2.30E+02  1.80E+02  5.00E+02  Kxp  1  0  1
KpKx174  log  factor  2.30E+02  1.80E+02  5.00E+02  Kxp  1  0  1
KpKx175  log  factor  2.30E+02  1.80E+02  5.00E+02  Kxp  1  0  1
KpKx176  log  factor  2.30E+02  1.80E+02  5.00E+02  Kxp  1  0  1
KpKx177  log  factor  2.30E+02  1.80E+02  5.00E+02  Kxp  1  0  1
KpKx178  log  factor  2.30E+02  1.80E+02  5.00E+02  Kxp  1  0  1
KpKx179  log  factor  2.30E+02  1.80E+02  5.00E+02  Kxp  1  0  1
KpKx180  log  factor  2.30E+02  1.80E+02  5.00E+02  Kxp  1  0  1
KpKx181  log  factor  2.30E+02  1.80E+02  5.00E+02  Kxp  1  0  1
KpKx182  log  factor  2.30E+02  1.80E+02  5.00E+02  Kxp  1  0  1
KpKx183  log  factor  2.30E+02  1.80E+02  5.00E+02  Kxp  1  0  1
KpKx184  log  factor  2.30E+02  1.80E+02  5.00E+02  Kxp  1  0  1
KpKx185  log  factor  2.30E+02  1.80E+02  5.00E+02  Kxp  1  0  1
KpKx186  log  factor  2.30E+02  1.80E+02  5.00E+02  Kxp  1  0  1
KpKx187  log  factor  2.30E+02  1.80E+02  5.00E+02  Kxp  1  0  1
KpKx188  log  factor  2.30E+02  1.80E+02  5.00E+02  Kxp  1  0  1
KpKx189  log  factor  2.30E+02  1.80E+02  5.00E+02  Kxp  1  0  1
KpKx190  log  factor  2.30E+02  1.80E+02  5.00E+02  Kxp  1  0  1
KpKx191  log  factor  2.30E+02  1.80E+02  5.00E+02  Kxp  1  0  1
KpKx192  log  factor  2.30E+02  1.80E+02  5.00E+02  Kxp  1  0  1
KpKx193  log  factor  2.30E+02  1.80E+02  5.00E+02  Kxp  1  0  1
KpKx194  log  factor  2.30E+02  1.80E+02  5.00E+02  Kxp  1  0  1
KpKx195  log  factor  2.30E+02  1.80E+02  5.00E+02  Kxp  1  0  1
KpKx196  log  factor  2.30E+02  1.80E+02  5.00E+02  Kxp  1  0  1
KpKx197  log  factor  2.30E+02  1.80E+02  5.00E+02  Kxp  1  0  1
KpKx198  log  factor  2.30E+02  1.80E+02  5.00E+02  Kxp  1  0  1
KpKx199  log  factor  2.30E+02  1.80E+02  5.00E+02  Kxp  1  0  1
KpKx200  log  factor  2.30E+02  1.80E+02  5.00E+02  Kxp  1  0  1
KpKx201  log  factor  2.30E+02  1.80E+02  5.00E+02  Kxp  1  0  1
KpKx202  log  factor  2.30E+02  1.80E+02  5.00E+02  Kxp  1  0  1
KpKx203  log  factor  2.30E+02  1.80E+02  5.00E+02  Kxp  1  0  1
KpKx204  log  factor  2.30E+02  1.80E+02  5.00E+02  Kxp  1  0  1
KpKx205  log  factor  2.30E+02  1.80E+02  5.00E+02  Kxp  1  0  1
KpKx206  log  factor  2.30E+02  1.80E+02  5.00E+02  Kxp  1  0  1
KpKx207  log  factor  2.30E+02  1.80E+02  5.00E+02  Kxp  1  0  1
KpKx208  log  factor  2.30E+02  1.80E+02  5.00E+02  Kxp  1  0  1
KpKx209  log  factor  2.30E+02  1.80E+02  5.00E+02  Kxp  1  0  1
KpKx210  log  factor  2.30E+02  1.80E+02  5.00E+02  Kxp  1  0  1
KpKx211  log  factor  2.30E+02  1.80E+02  5.00E+02  Kxp  1  0  1
KpKx212  log  factor  2.30E+02  1.80E+02  5.00E+02  Kxp  1  0  1
KpKx213  log  factor  2.30E+02  1.80E+02  5.00E+02  Kxp  1  0  1
KpKx214  log  factor  2.30E+02  1.80E+02  5.00E+02  Kxp  1  0  1
KpKx215  log  factor  2.30E+02  1.80E+02  5.00E+02  Kxp  1  0  1
KpKx216  log  factor  2.30E+02  1.80E+02  5.00E+02  Kxp  1  0  1
KpKx217  log  factor  2.30E+02  1.80E+02  5.00E+02  Kxp  1  0  1
KpKx218  log  factor  2.30E+02  1.80E+02  5.00E+02  Kxp  1  0  1
KpKx219  log  factor  2.30E+02  1.80E+02  5.00E+02  Kxp  1  0  1
KpKx220  log  factor  2.30E+02  1.80E+02  5.00E+02  Kxp  1  0  1
KpKx221  log  factor  2.30E+02  1.80E+02  5.00E+02  Kxp  1  0  1
KpKx222  log  factor  2.30E+02  1.80E+02  5.00E+02  Kxp  1  0  1
KpKx223  log  factor  2.30E+02  1.80E+02  5.00E+02  Kxp  1  0  1
KpKx224  log  factor  2.30E+02  1.80E+02  5.00E+02  Kxp  1  0  1
KpKx225  log  factor  2.30E+02  1.80E+02  5.00E+02  Kxp  1  0  1
KpKx226  log  factor  2.30E+02  1.80E+02  5.00E+02  Kxp  1  0  1
KpKx227  log  factor  2.30E+02  1.80E+02  5.00E+02  Kxp  1  0  1
KpKx228  log  factor  2.30E+02  1.80E+02  5.00E+02  Kxp  1  0  1
KpKx229  log  factor  2.30E+02  1.80E+02  5.00E+02  Kxp  1  0  1
KpKx230  log  factor  2.30E+02  1.80E+02  5.00E+02  Kxp  1  0  1
KpKx231  log  factor  2.30E+02  1.80E+02  5.00E+02  Kxp  1  0  1
KpKx232  log  factor  2.30E+02  1.80E+02  5.00E+02  Kxp  1  0  1
KpKx233  log  factor  2.30E+02  1.80E+02  5.00E+02  Kxp  1  0  1
KpKx234  log  factor  2.30E+02  1.80E+02  5.00E+02  Kxp  1  0  1
KpKx235  log  factor  2.30E+02  1.80E+02  5.00E+02  Kxp  1  0  1
KpKx236  log  factor  2.30E+02  1.80E+02  5.00E+02  Kxp  1  0  1
KpKx237  log  factor  2.30E+02  1.80E+02  5.00E+02  Kxp  1  0  1
KpKx238  log  factor  2.30E+02  1.80E+02  5.00E+02  Kxp  1  0  1
KpKx239  log  factor  2.30E+02  1.80E+02  5.00E+02  Kxp  1  0  1
KpKx240  log  factor  2.30E+02  1.80E+02  5.00E+02  Kxp  1  0  1
KpKx241  log  factor  2.30E+02  1.80E+02  5.00E+02  Kxp  1  0  1
KpKx242  log  factor  2.30E+02  1.80E+02  5.00E+02  Kxp  1  0  1
KpKx243  log  factor  2.30E+02  1.80E+02  5.00E+02  Kxp  1  0  1
KpKx244  log  factor  2.30E+02  1.80E+02  5.00E+02  Kxp  1  0  1
KpKx245  log  factor  2.30E+02  1.80E+02  5.00E+02  Kxp  1  0  1
KpKx246  log  factor  2.30E+02  1.80E+02  5.00E+02  Kxp  1  0  1
KpKx247  log  factor  2.30E+02  1.80E+02  5.00E+02  Kxp  1  0  1
KpKx248  log  factor  2.30E+02  1.80E+02  5.00E+02  Kxp  1  0  1
KpKx249  log  factor  2.30E+02  1.80E+02  5.00E+02  Kxp  1  0  1
KpKx250  log  factor  2.30E+02  1.80E+02  5.00E+02  Kxp  1  0  1
KpKx251  log  factor  2.30E+02  1.80E+02  5.00E+02  Kxp  1  0  1
KpKx252  log  factor  2.30E+02  1.80E+02  5.00E+02  Kxp  1  0  1
KpKx253  log  factor  2.30E+02  1.80E+02  5.00E+02  Kxp  1  0  1
KpKx254  log  factor  2.30E+02  1.80E+02  5.00E+02  Kxp  1  0  1
KpKx255  log  factor  2.30E+02  1.80E+02  5.00E+02  Kxp  1  0  1
KpKx256  log  factor  2.30E+02  1.80E+02  5.00E+02  Kxp  1  0  1
KpKx257  log  factor  2.30E+02  1.80E+02  5.00E+02  Kxp  1  0  1
KpKx258  log  factor  2.30E+02  1.80E+02  5.00E+02  Kxp  1  0  1
KpKx259  log  factor  2.30E+02  1.80E+02  5.00E+02  Kxp  1  0  1
KpKx260  log  factor  2.30E+02  1.80E+02  5.00E+02  Kxp  1  0  1
KpKx261  log  factor  2.30E+02  1.80E+02  5.00E+02  Kxp  1  0  1
KpKx262  log  factor  2.30E+02  1.80E+02  5.00E+02  Kxp  1  0  1
KpKx263  log  factor  2.30E+02  1.80E+02  5.00E+02  Kxp  1  0  1
KpKx264  log  factor  2.30E+02  1.80E+02  5.00E+02  Kxp  1  0  1
KpKx265  log  factor  2.30E+02  1.80E+02  5.00E+02  Kxp  1  0  1
KpKx266  log  factor  2.30E+02  1.80E+02  5.00E+02  Kxp  1  0  1
KpKx267  log  factor  2.30E+02  1.80E+02  5.00E+02  Kxp  1  0  1
KpKx268  log  factor  2.30E+02  1.80E+02  5.00E+02  Kxp  1  0  1
KpKx269  log  factor  2.30E+02  1.80E+02  5.00E+02  Kxp  1  0  1
KpKx270  log  factor  2.30E+02  1.80E+02  5.00E+02  Kxp  1  0  1
KpKx271  log  factor  2.30E+02  1.80E+02  5.00E+02  Kxp  1  0  1
KpKx272  log  factor  2.30E+02  1.80E+02  5.00E+02  Kxp  1  0  1
KpKx273  log  factor  2.30E+02  1.80E+02  5.00E+02  Kxp  1  0  1
KpKx274  log  factor  2.30E+02  1.80E+02  5.00E+02  Kxp  1  0  1
KpKx275  log  factor  2.30E+02  1.80E+02  5.00E+02  Kxp  1  0  1
KpKx276  log  factor  2.30E+02  1.80E+02  5.00E+02  Kxp  1  0  1
KpKx277  log  factor  2.30E+02  1.80E+02  5.00E+02  Kxp  1  0  1
KpKx278  log  factor  2.30E+02  1.80E+02  5.00E+02  Kxp  1  0  1
KpKx279  log  factor  2.30E+02  1.80E+02  5.00E+02  Kxp  1  0  1
KpKx280  log  factor  2.30E+02  1.80E+02  5.00E+02  Kxp  1  0  1
KpKx281  log  factor  2.30E+02  1.80E+02  5.00E+02  Kxp  1  0  1
KpKx282  log  factor  2.30E+02  1.80E+02  5.00E+02  Kxp  1  0  1
KpKx283  log  factor  2.30E+02  1.80E+02  5.00E+02  Kxp  1  0  1
KpKx284  log  factor  2.30E+02  1.80E+02  5.00E+02  Kxp  1  0  1
KpKx285  log  factor  2.30E+02  1.80E+02  5.00E+02  Kxp  1  0  1
KpKx286  log  factor  2.30E+02  1.80E+02  5.00E+02  Kxp  1  0  1
KpKx287  log  factor  2.30E+02  1.80E+02  5.00E+02  Kxp  1  0  1
KpKx288  log  factor  2.30E+02  1.80E+02  5.00E+02  Kxp  1  0  1
KpKx289  log  factor  2.30E+02  1.80E+02  5.00E+02  Kxp  1  0  1
KpKx290  log  factor  2.30E+02  1.80E+02  5.00E+02  Kxp  1  0  1
KpKx291  log  factor  2.30E+02  1.80E+02  5.00E+02  Kxp  1  0  1
KpKx292  log  factor  2.30E+02  1.80E+02  5.00E+02  Kxp  1  0  1
KpKx293  log  factor  2.30E+02  1.80E+02  5.00E+02  Kxp  1  0  1
KpKx294  log  factor  2.30E+02  1.80E+02  5.00E+02  Kxp  1  0  1
KpKx295  log  factor  2.30E+02  1.80E+02  5.00E+02  Kxp  1  0  1
KpKx296  log  factor  2.30E+02  1.80E+02  5.00E+02  Kxp  1  0  1
KpKx297  log  factor  2.30E+02  1.80E+02  5.00E+02  Kxp  1  0  1
KpKx298  log  factor  2.30E+02  1.80E+02  5.00E+02  Kxp  1  0  1
KpKx299  log  factor  2.30E+02  1.80E+02  5.00E+02  Kxp  1  0  1
KpKx300  log  factor  2.30E+02  1.80E+02  5.00E+02  Kxp  1  0  1
KpKx301  log  factor  2.30E+02  1.80E+02  5.00E+02  Kxp  1  0  1
KpKx302  log  factor  2.30E+02  1.80E+02  5.00E+02  Kxp  1  0  1
KpKx303  log  factor  2.30E+02  1.80E+02  5.00E+02  Kxp  1  0  1
KpKx304  log  factor  2.30E+02  1.80E+02  5.00E+02  Kxp  1  0  1
KpKx305  log  factor  2.30E+02  1.80E+02  5.00E+02  Kxp  1  0  1
KpKx306  log  factor  2.30E+02  1.80E+02  5.00E+02  Kxp  1  0  1
KpKx307  log  factor  2.30E+02  1.80E+02  5.00E+02  Kxp  1  0  1
KpKx308  log  factor  2.30E+02  1.80E+02  5.00E+02  Kxp  1  0  1
KpKx309  log  factor  2.30E+02  1.80E+02  5.00E+02  Kxp  1  0  1
KpKx310  log  factor  2.30E+02  1.80E+02  5.00E+02  Kxp  1  0  1
KpKx311  log  factor  2.30E+02  1.80E+02  5.00E+02  Kxp  1  0  1
KpKx312  log  factor  2.30E+02  1.80E+02  5.00E+02  Kxp  1  0  1
KpKx313  log  factor  2.30E+02  1.80E+02  5.00E+02  Kxp  1  0  1
KpKx314  log  factor  2.30E+02  1.80E+02  5.00E+02  Kxp  1  0  1
KpKx315  log  factor  2.30E+02  1.80E+02  5.00E+02  Kxp  1  0  1
KpKx316  log  factor  2.30E+02  1.80E+02  5.00E+02  Kxp  1  0  1
KpKx317  log  factor  2.30E+02  1.80E+02  5.00E+02  Kxp  1  0  1
KpKx318  log  factor  2.30E+02  1.80E+02  5.00E+02  Kxp  1  0  1
KpKx319  log  factor  2.30E+02  1.80E+02  5.00E+02  Kxp  1  0  1
KpKx320  log  factor  2.30E+02  1.80E+02  5.00E+02  Kxp  1  0  1
KpKx321  log  factor  2.30E+02  1.80E+02  5.00E+02  Kxp  1  0  1
KpKx322  log  factor  2.30E+02  1.80E+02  5.00E+02  Kxp  1  0  1
KpKx323  log  factor  2.30E+02  1.80E+02  5.00E+02  Kxp  1  0  1
KpKx324  log  factor  2.30E+02  1.80E+02  5.00E+02  Kxp  1  0  1
KpKx325  log  factor  2.30E+02  1.80E+02  5.00E+02  Kxp  1  0  1
KpKx326  log  factor  2.30E+02  1.80E+02  5.00E+02  Kxp  1  0  1
KpKx327  log  factor  2.30E+02  1.80E+02  5.00E+02  Kxp  1  0  1
KpKx328  log  factor  2.30E+02  1.80E+02  5.00E+02  Kxp  1  0  1
KpKx329  log  factor  2.30E+02  1.80E+02  5.00E+02  Kxp  1  0  1
KpKx330  log  factor  2.30E+02  1.80E+02  5.00E+02  Kxp  1  0  1
KpKx331  log  factor  2.30E+02  1.80E+02  5.00E+02  Kxp  1  0  1
KpKx332  log  factor  2.30E+02  1.80E+02  5.00E+02  Kxp  1  0  1
KpKx333  log  factor  2.30E+02  1.80E+02  5.00E+02  Kxp  1  0  1
KpKx334  log  factor  2.30E+02  1.80E+02  5.00E+02  Kxp  1  0  1
KpKx335  log  factor  2.30E+02  1.80E+02  5.00E+02  Kxp  1  0  1
KpKx336  log  factor  2.30E+02  1.80E+02  5.00E+02  Kxp  1  0  1
KpKx337  log  factor  2.30E+02  1.80E+02  5.00E+02  Kxp  1  0  1
KpKx338  log  factor  2.30E+02  1.80E+02  5.00E+02  Kxp  1  0  1
KpKx339  log  factor  2.30E+02  1.80E+02  5.00E+02  Kxp  1  0  1
KpKx340  log  factor  2.30E+02  1.80E+02  5.00E+02  Kxp  1  0  1
KpKx341  log  factor  2.30E+02  1.80E+02  5.00E+02  Kxp  1  0  1
KpKx342  log  factor  2.30E+02  1.80E+02  5.00E+02  Kxp  1  0  1
KpKx343  log  factor  2.30E+02  1.80E+02  5.00E+02  Kxp  1  0  1
KpKx344  log  factor  2.30E+02  1.80E+02  5.00E+02  Kxp  1  0  1
KpKx345  log  factor  2.30E+02  1.80E+02  5.00E+02  Kxp  1  0  1
KpKx346  log  factor  2.30E+02  1.80E+02  5.00E+02  Kxp  1  0  1
KpKx347  log  factor  2.30E+02  1.80E+02  5.00E+02  Kxp  1  0  1
KpKx348  log  factor  2.30E+02  1.80E+02  5.00E+02  Kxp  1  0  1
KpKx349  log  factor  2.30E+02  1.80E+02  5.00E+02  Kxp  1  0  1
KpKx350  log  factor  2.30E+02  1.80E+02  5.00E+02  Kxp  1  0  1
KpKx351  log  factor  2.30E+02  1.80E+02  5.00E+02  Kxp  1  0  1
KpKx352  log  factor  2.30E+02  1.80E+02  5.00E+02  Kxp  1  0  1
KpKx353  log  factor  2.30E+02  1.80E+02  5.00E+02  Kxp  1  0  1
KpKx354  log  factor  2.30E+02  1.80E+02  5.00E+02  Kxp  1  0  1
KpKx355  log  factor  2.30E+02  1.80E+02  5.00E+02  Kxp  1  0  1
KpKx356  log  factor  2.30E+02  1.80E+02  5.00E+02  Kxp  1  0  1
KpKx357  log  factor  2.30E+02  1.80E+02  5.00E+02  Kxp  1  0  1
KpKx358  log  factor  2.30E+02  1.80E+02  5.00E+02  Kxp  1  0  1
KpKx359  log  factor  2.30E+02  1.80E+02  5.00E+02  Kxp  1  0  1
KpKx360  log  factor  2.30E+02  1.80E+02  5.00E+02  Kxp  1  0  1
KpKx361  log  factor  2.30E+02  1.80E+02  5.00E+02  Kxp  1  0  1
KpKx362  log  factor  2.30E+02  1.80E+02  5.00E+02  Kxp  1  0  1
KpKx363  log  factor  2.30E+02  1.80E+02  5.00E+02  Kxp  1  0  1
KpKx364  log  factor  2.30E+02  1.80E+02  5.00E+02  Kxp  1  0  1
KpKx365  log  factor  2.30E+02  1.80E+02  5.00E+02  Kxp  1  0  1
KpKx366  log  factor  2.30E+02  1.80E+02  5.00E+02  Kxp  1  0  1
KpKx367  log  factor  2.30E+02  1.80E+02  5.00E+02  Kxp  1  0  1
KpKx368  log  factor  2.30E+02  1.80E+02  5.00E+02  Kxp  1  0  1
KpKx369  log  factor  2.30E+02  1.80E+02  5.00E+02  Kxp  1  0  1
KpKx370  log  factor  2.30E+02  1.80E+02  5.00E+02  Kxp  1  0  1
KpKx371  log  factor  2.30E+02  1.80E+02  5.00E+02  Kxp  1  0  1
KpKx372  log  factor  2.30E+02  1.80E+02  5.00E+02  Kxp  1  0  1
KpKx373  log  factor  2.30E+02  1.80E+02  5.00E+02  Kxp  1  0  1
KpKx374  log  factor  2.30E+02  1.80E+02  5.00E+02  Kxp  1  0  1
KpKx375  log  factor  2.30E+02  1.80E+02  5.00E+02  Kxp  1  0  1
KpKx376  log  factor  2.30E+02  1.80E+02  5.00E+02  Kxp  1  0  1
KpKx377  log  factor  2.30E+02  1.80E+02  5.00E+02  Kxp  1  0  1
KpKx378  log  factor  2.30E+02  1.80E+02  5.00E+02  Kxp  1  0  1
KpKx379  log  factor  2.30E+02  1.80E+02  5.00E+02  Kxp  1  0  1
KpKx380  log  factor  2.30E+02  1.80E+02  5.00E+02  Kxp  1  0  1
KpKx381  log  factor  2.30E+02  1.80E+02  5.00E+02  Kxp  1  0  1
KpKx382  log  factor  2.30E+02  1.80E+02  5.00E+02  Kxp  1  0  1
KpKx383  log  factor  2.30E+02  1.80E+02  5.00E+02  Kxp  1  0  1
KpKx384  log  factor  2.30E+02  1.80E+02  5.00E+02  Kxp  1  0  1
KpKx385  log  factor  2.30E+02  1.80E+02  5.00E+02  Kxp  1  0  1
KpKx386  log  factor  2.30E+02  1.80E+02  5.00E+02  Kxp  1  0  1
KpKx387  log  factor  2.30E+02  1.80E+02  5.00E+02  Kxp  1  0  1
KpKx388  log  factor  2.30E+02  1.80E+02  5.00E+02  Kxp  1  0  1
KpKx389  log  factor  2.30E+02  1.80E+02  5.00E+02  Kxp  1  0  1
KpKx390  log  factor  2.30E+02  1.80E+02  5.00E+02  Kxp  1  0  1
KpKx391  log  factor  2.30E+02  1.80E+02  5.00E+02  Kxp  1  0  1
KpKx392  log  factor  2.30E+02  1.80E+02  5.00E+02  Kxp  1  0  1
KpKx393  log  factor  2.30E+02  1.80E+02  5.00E+02  Kxp  1  0  1
KpKx394  log  factor  2.30E+02  1.80E+02  5.00E+02  Kxp  1  0  1
KpKx395  log  factor  2.30E+02  1.80E+02  5.00E+02  Kxp  1  0  1
KpKx396  log  factor  2.30E+02  1.80E+02  5.00E+02  Kxp  1  0  1
KpKx397  log  factor  2.30E+02  1.80E+02  5.00E+02  Kxp  1  0  1
KpKx398  log  factor  2.30E+02  1.80E+02  5.00E+02  Kxp  1  0  1
KpKx399  log  factor  2.30E+02  1.80E+02  5.00E+02  Kxp  1  0  1
KpKx400  log  factor  2.30E+02  1.80E+02  5.00E+02  Kxp  1  0  1
KpKx401  log  factor  2.30E+02  1.80E+02  5.00E+02  Kxp  1  0  1
KpKx402  log  factor  2.30E+02  1.80E+02  5.00E+02  Kxp  1  0  1
KpKx403  log  factor  2.30E+02  1.80E+02  5.00E+02  Kxp  1  0  1
KpKx404  log  factor  2.30E+02  1.80E+02  5.00E+02  Kxp  1  0  1
KpKx405  log  factor  2.30E+02  1.80E+02  5.00E+02  Kxp  1  0  1
KpKx406  log  factor  2.30E+02  1.80E+02  5.00E+02  Kxp  1  0  1
KpKx407  log  factor  2.30E+02  1.80E+02  5.00E+02  Kxp  1  0  1
KpKx408  log  factor  2.30E+02  1.80E+02  5.00E+02  Kxp  1  0  1
KpKx409  log  factor  2.30E+02  1.80E+02  5.00E+02  Kxp  1  0  1
KpKx410  log  factor  2.30E+02  1.80E+02  5.00E+02  Kxp  1  0  1
KpKx411  log  factor  2.30E+02  1.80E+02  5.00E+02  Kxp  1  0  1
KpKx412  log  factor  2.30E+02  1.80E+02  5.00E+02  Kxp  1  0  1
KpKx413  log  factor  2.30E+02  1.80E+02  5.00E+02  Kxp  1  0  1
KpKx414  log  factor  2.30E+02  1.80E+02  5.00E+02  Kxp  1  0  1
KpKx415  log  factor  2.30E+02  1.80E+02  5.00E+02  Kxp  1  0  1
KpKx416  log  factor  2.30E+02  1.80E+02  5.00E+02  Kxp  1  0  1
KpKx417  log  factor  2.30E+02  1.80E+02  5.00E+02  Kxp  1  0  1
KpKx418  log  factor  2.30E+02  1.80E+02  5.00E+02  Kxp  1  0  1
KpKx419  log  factor  2.30E+02  1.80E+02  5.00E+02  Kxp  1  0  1
KpKx420  log  factor  2.30E+02  1.80E+02  5.00E+02  Kxp  1  0  1
KpKx421  log  factor  2.30E+02  1.80E+02  5.00E+02  Kxp  1  0  1
KpKx422  log  factor  2.30E+02  1.80E+02  5.00E+02  Kxp  1  0  1
KpKx423  log  factor  2.30E+02  1.80E+02  5.00E+02  Kxp  1  0  1
KpKx424  log  factor  2.30E+02  1.80E+02  5.00E+02  Kxp  1  0  1
KpKx425  log  factor  2.30E+02  1.80E+02  5.00E+02  Kxp  1  0  1
KpKx426  log  factor  2.30E+02  1.80E+02  5.00E+02  Kxp  1  0  1
KpKx427  log  factor  2.30E+02  1.80E+02  5.00E+02  Kxp  1  0  1
KpKx428  log  factor  2.30E+02  1.80E+02  5.00E+02  Kxp  1  0  1
KpKx429  log  factor  2.30E+02  1.80E+02  5.00E+02  Kxp  1  0  1
KpKx430  log  factor  2.30E+02  1.80E+02  5.00E+02  Kxp  1  0  1
KpKx431  log  factor  2.30E+02  1.80E+02  5.00E+02  Kxp  1  0  1