pcf
* control data
restart regularisation
     90  20464      1      0      6  
    1    3 double point  1    0  0
   20.000       -3.0000      0.3  0.03  10     999  lamforgive
      0.100  10.0  0.001
 0.1      1
    50  0.005  4  4  0.005  4
1  1  1  1 nojcosaveitn reisaveitn
* singular value decomposition
     1
    90  5.0000000E-07
     1
* svd assist
lpr5b.pst
lpr5b.jco
    1    2    0    1    0
* parameter groups
 pargp absolute    0.015  0.0  switch    2.0 parabolic
* parameter data
par1         none  relative   10.000     1.0e-20  1.0e20  pargp  1.0  -10.000      1
par2         none  relative   10.000     1.0e-20  1.0e20  pargp  1.0  -10.000      1
par3         none  relative   10.000     1.0e-20  1.0e20  pargp  1.0  -10.000      1
par4         none  relative   10.000     1.0e-20  1.0e20  pargp  1.0  -10.000      1
par5         none  relative   10.000     1.0e-20  1.0e20  pargp  1.0  -10.000      1
par6         none  relative   10.000     1.0e-20  1.0e20  pargp  1.0  -10.000      1
par7         none  relative   10.000     1.0e-20  1.0e20  pargp  1.0  -10.000      1
par8         none  relative   10.000     1.0e-20  1.0e20  pargp  1.0  -10.000      1
par9         none  relative   10.000     1.0e-20  1.0e20  pargp  1.0  -10.000      1
par10        none  relative   10.000     1.0e-20  1.0e20  pargp  1.0  -10.000      1
par11        none  relative   10.000     1.0e-20  1.0e20  pargp  1.0  -10.000      1
par12        none  relative   10.000     1.0e-20  1.0e20  pargp  1.0  -10.000      1
par13        none  relative   10.000     1.0e-20  1.0e20  pargp  1.0  -10.000      1
par14        none  relative   10.000     1.0e-20  1.0e20  pargp  1.0  -10.000      1
par15        none  relative   10.000     1.0e-20  1.0e20  pargp  1.0  -10.000      1
par16        none  relative   10.000     1.0e-20  1.0e20  pargp  1.0  -10.000      1
par17        none  relative   10.000     1.0e-20  1.0e20  pargp  1.0  -10.000      1
par18        none  relative   10.000     1.0e-20  1.0e20  pargp  1.0  -10.000      1
par19        none  relative   10.000     1.0e-20  1.0e20  pargp  1.0  -10.000      1
par20        none  relative   10.000     1.0e-20  1.0e20  pargp  1.0  -10.000      1
par21        none  relative   10.000     1.0e-20  1.0e20  pargp  1.0  -10.000      1
par22        none  relative   10.000     1.0e-20  1.0e20  pargp  1.0  -10.000      1
par23        none  relative   10.000     1.0e-20  1.0e20  pargp  1.0  -10.000      1
par24        none  relative   10.000     1.0e-20  1.0e20  pargp  1.0  -10.000      1
par25        none  relative   10.000     1.0e-20  1.0e20  pargp  1.0  -10.000      1
par26        none  relative   10.000     1.0e-20  1.0e20  pargp  1.0  -10.000      1
par27        none  relative   10.000     1.0e-20  1.0e20  pargp  1.0  -10.000      1
par28        none  relative   10.000     1.0e-20  1.0e20  pargp  1.0  -10.000      1
par29        none  relative   10.000     1.0e-20  1.0e20  pargp  1.0  -10.000      1
par30        none  relative   10.000     1.0e-20  1.0e20  pargp  1.0  -10.000      1
par31        none  relative   10.000     1.0e-20  1.0e20  pargp  1.0  -10.000      1
par32        none  relative   10.000     1.0e-20  1.0e20  pargp  1.0  -10.000      1
par33        none  relative   10.000     1.0e-20  1.0e20  pargp  1.0  -10.000      1
par34        none  relative   10.000     1.0e-20  1.0e20  pargp  1.0  -10.000      1
par35        none  relative   10.000     1.0e-20  1.0e20  pargp  1.0  -10.000      1
par36        none  relative   10.000     1.0e-20  1.0e20  pargp  1.0  -10.000      1
par37        none  relative   10.000     1.0e-20  1.0e20  pargp  1.0  -10.000      1
par38        none  relative   10.000     1.0e-20  1.0e20  pargp  1.0  -10.000      1
par39        none  relative   10.000     1.0e-20  1.0e20  pargp  1.0  -10.000      1
par40        none  relative   10.000     1.0e-20  1.0e20  pargp  1.0  -10.000      1
par41        none  relative   10.000     1.0e-20  1.0e20  pargp  1.0  -10.000      1
par42        none  relative   10.000     1.0e-20  1.0e20  pargp  1.0  -10.000      1
par43        none  relative   10.000     1.0e-20  1.0e20  pargp  1.0  -10.000      1
par44        none  relative   10.000     1.0e-20  1.0e20  pargp  1.0  -10.000      1
par45        none  relative   10.000     1.0e-20  1.0e20  pargp  1.0  -10.000      1
par46        none  relative   10.000     1.0e-20  1.0e20  pargp  1.0  -10.000      1
par47        none  relative   10.000     1.0e-20  1.0e20  pargp  1.0  -10.000      1
par48        none  relative   10.000     1.0e-20  1.0e20  pargp  1.0  -10.000      1
par49        none  relative   10.000     1.0e-20  1.0e20  pargp  1.0  -10.000      1
par50        none  relative   10.000     1.0e-20  1.0e20  pargp  1.0  -10.000      1
par51        none  relative   10.000     1.0e-20  1.0e20  pargp  1.0  -10.000      1
par52        none  relative   10.000     1.0e-20  1.0e20  pargp  1.0  -10.000      1
par53        none  relative   10.000     1.0e-20  1.0e20  pargp  1.0  -10.000      1
par54        none  relative   10.000     1.0e-20  1.0e20  pargp  1.0  -10.000      1
par55        none  relative   10.000     1.0e-20  1.0e20  pargp  1.0  -10.000      1
par56        none  relative   10.000     1.0e-20  1.0e20  pargp  1.0  -10.000      1
par57        none  relative   10.000     1.0e-20  1.0e20  pargp  1.0  -10.000      1
par58        none  relative   10.000     1.0e-20  1.0e20  pargp  1.0  -10.000      1
par59        none  relative   10.000     1.0e-20  1.0e20  pargp  1.0  -10.000      1
par60        none  relative   10.000     1.0e-20  1.0e20  pargp  1.0  -10.000      1
par61        none  relative   10.000     1.0e-20  1.0e20  pargp  1.0  -10.000      1
par62        none  relative   10.000     1.0e-20  1.0e20  pargp  1.0  -10.000      1
par63        none  relative   10.000     1.0e-20  1.0e20  pargp  1.0  -10.000      1
par64        none  relative   10.000     1.0e-20  1.0e20  pargp  1.0  -10.000      1
par65        none  relative   10.000     1.0e-20  1.0e20  pargp  1.0  -10.000      1
par66        none  relative   10.000     1.0e-20  1.0e20  pargp  1.0  -10.000      1
par67        none  relative   10.000     1.0e-20  1.0e20  pargp  1.0  -10.000      1
par68        none  relative   10.000     1.0e-20  1.0e20  pargp  1.0  -10.000      1
par69        none  relative   10.000     1.0e-20  1.0e20  pargp  1.0  -10.000      1
par70        none  relative   10.000     1.0e-20  1.0e20  pargp  1.0  -10.000      1
par71        none  relative   10.000     1.0e-20  1.0e20  pargp  1.0  -10.000      1
par72        none  relative   10.000     1.0e-20  1.0e20  pargp  1.0  -10.000      1
par73        none  relative   10.000     1.0e-20  1.0e20  pargp  1.0  -10.000      1
par74        none  relative   10.000     1.0e-20  1.0e20  pargp  1.0  -10.000      1
par75        none  relative   10.000     1.0e-20  1.0e20  pargp  1.0  -10.000      1
par76        none  relative   10.000     1.0e-20  1.0e20  pargp  1.0  -10.000      1
par77        none  relative   10.000     1.0e-20  1.0e20  pargp  1.0  -10.000      1
par78        none  relative   10.000     1.0e-20  1.0e20  pargp  1.0  -10.000      1
par79        none  relative   10.000     1.0e-20  1.0e20  pargp  1.0  -10.000      1
par80        none  relative   10.000     1.0e-20  1.0e20  pargp  1.0  -10.000      1
par81        none  relative   10.000     1.0e-20  1.0e20  pargp  1.0  -10.000      1
par82        none  relative   10.000     1.0e-20  1.0e20  pargp  1.0  -10.000      1
par83        none  relative   10.000     1.0e-20  1.0e20  pargp  1.0  -10.000      1
par84        none  relative   10.000     1.0e-20  1.0e20  pargp  1.0  -10.000      1
par85        none  relative   10.000     1.0e-20  1.0e20  pargp  1.0  -10.000      1
par86        none  relative   10.000     1.0e-20  1.0e20  pargp  1.0  -10.000      1
par87        none  relative   10.000     1.0e-20  1.0e20  pargp  1.0  -10.000      1
par88        none  relative   10.000     1.0e-20  1.0e20  pargp  1.0  -10.000      1
par89        none  relative   10.000     1.0e-20  1.0e20  pargp  1.0  -10.000      1
par90        none  relative   10.000     1.0e-20  1.0e20  pargp  1.0  -10.000      1
* observation groups
regul_kz2
regul_kp2
Head
Head_z
Head_lake
Flux
* observation data
ALB_1  1.08943000E+03  5.00000000E-01  Head
ALB_2  1.08939000E+03  5.00000000E-01  Head
DM_3  1.07744000E+03  5.00000000E-01  Head
DM_4  1.07699000E+03  5.00000000E-01  Head
DM_5  1.07679000E+03  5.00000000E-01  Head
DM_6  1.07961000E+03  5.00000000E-01  Head
DM_7  1.07939000E+03  5.00000000E-01  Head
DM_8  1.07919000E+03  5.00000000E-01  Head
DM_9  1.08075000E+03  5.00000000E-01  Head
DM_10  1.07624000E+03  5.00000000E-01  Head
DM_11  1.08077000E+03  5.00000000E-01  Head
DM_12  1.07748000E+03  5.00000000E-01  Head
DM_13  1.07731000E+03  5.00000000E-01  Head
DM_14  1.07722000E+03  5.00000000E-01  Head
PRF_15  1.12954000E+03  5.00000000E-01  Head
PRF_16  1.12809000E+03  5.00000000E-01  Head
PRF_17  1.13295000E+03  5.00000000E-01  Head
PRF_18  1.13855000E+03  5.00000000E-01  Head
PRF_19  1.14081000E+03  5.00000000E-01  Head
PRF_20  1.14362000E+03  5.00000000E-01  Head
PRF_21  1.13721000E+03  5.00000000E-01  Head
PRF_22  1.08449000E+03  5.00000000E-01  Head
PRF_23  1.08442000E+03  5.00000000E-01  Head
PRF_24  1.12576000E+03  5.00000000E-01  Head
PRF_25  1.12279000E+03  5.00000000E-01  Head
PRF_26  1.12475000E+03  5.00000000E-01  Head
PRF_27  1.12010000E+03  5.00000000E-01  Head
PRF_28  1.12038000E+03  5.00000000E-01  Head
PRF_29  1.11579000E+03  5.00000000E-01  Head
PRF_30  1.12633000E+03  5.00000000E-01  Head
PRF_31  1.13840000E+03  5.00000000E-01  Head
RI_32  9.97000000E+02  5.00000000E-01  Head
RI_33  1.12430000E+03  5.00000000E-01  Head
RI_34  1.12630000E+03  5.00000000E-01  Head
RI_35  1.01950000E+03  5.00000000E-01  Head
RI_36  1.15450000E+03  5.00000000E-01  Head
RI_38  1.10270000E+03  5.00000000E-01  Head
RI_39  1.02820000E+03  5.00000000E-01  Head
RI_40  1.06940000E+03  5.00000000E-01  Head
RI_41  1.12150000E+03  5.00000000E-01  Head
RI_42  1.07140000E+03  5.00000000E-01  Head
RI_43  1.09060000E+03  5.00000000E-01  Head
RI_44  1.01320000E+03  5.00000000E-01  Head
RI_45  1.04080000E+03  5.00000000E-01  Head
RI_46  1.03840000E+03  5.00000000E-01  Head
RI_47  1.08140000E+03  5.00000000E-01  Head
RI_48  1.11460000E+03  5.00000000E-01  Head
RI_49  1.08340000E+03  5.00000000E-01  Head
RI_50  1.17570000E+03  5.00000000E-01  Head
RI_51  1.05940000E+03  5.00000000E-01  Head
RI_52  1.13550000E+03  5.00000000E-01  Head
RI_53  1.13580000E+03  5.00000000E-01  Head
RI_54  1.04260000E+03  5.00000000E-01  Head
RI_55  1.09230000E+03  5.00000000E-01  Head
RI_56  1.06300000E+03  5.00000000E-01  Head
RI_57  1.08950000E+03  5.00000000E-01  Head
USGS_58  1.08779000E+03  5.00000000E-01  Head
USGS_59  1.08127000E+03  5.00000000E-01  Head
USGS_60  1.10980000E+03  0.00000000E+00  Head_z
VP_61  1.07597000E+03  5.00000000E-01  Head
VP_62  1.07663000E+03  5.00000000E-01  Head
VP_63  1.08974000E+03  5.00000000E-01  Head
VP_64  1.08930000E+03  5.00000000E-01  Head
VP_65  1.07089000E+03  5.00000000E-01  Head
VP_66  1.07296000E+03  5.00000000E-01  Head
WGNHS_67  1.07373000E+03  5.00000000E-01  Head
WGNHS_68  1.08518000E+03  5.00000000E-01  Head
WGNHS_69  1.08507000E+03  5.00000000E-01  Head
WGNHS_70  1.09055000E+03  5.00000000E-01  Head
WGNHS_71  1.09070000E+03  5.00000000E-01  Head
WGNHS_72  1.10265000E+03  5.00000000E-01  Head
WGNHS_73  1.10324000E+03  5.00000000E-01  Head
WGNHS_74  1.09792000E+03  5.00000000E-01  Head
WGNHS_75  1.09792000E+03  5.00000000E-01  Head
WGNHS_76  1.08237000E+03  5.00000000E-01  Head
WGNHS_77  1.06820000E+03  5.00000000E-01  Head
WGNHS_78  1.10795000E+03  5.00000000E-01  Head
Thomas_Lk  1.10675000E+03  1.20000000E+00  Head_lake
Adams_Lk  1.08870000E+03  1.20000000E+00  Head_lake
Spring_Lk  1.02520000E+03  1.20000000E+00  Head_lake
Pacawa_Lk  1.07420000E+03  1.20000000E+00  Head_lake
Clar_Re_Lk  1.07250000E+03  1.20000000E+00  Head_lake
Spri__Pnd  1.06660000E+03  1.20000000E+00  Head_lake
BB_Lk  1.07610000E+03  1.20000000E+00  Head_lake
Jordan_Pnd  1.11460000E+03  1.20000000E+00  Head_lake
LPRI39  2.71789309E+05  3.67932058E-05  Flux
LPRHoov  3.24390980E+05  3.08269977E-05  Flux
LPREis  1.77543950E+05  5.63240821E-05  Flux
LPROkray  1.76944741E+05  5.65148188E-05  Flux
BearQ  1.93237265E+05  5.17498527E-05  Flux
SpringQ  1.72702622E+05  5.79030006E-05  Flux
Ditch2  5.27706628E+04  1.89499231E-04  Flux
NoName  5.94788410E+04  1.68127015E-04  Flux
SWCan3  1.81357869E+06  5.51395980E-06  Flux
SWCan2  7.01370345E+05  1.42578027E-05  Flux
SWCan1  2.42898730E+05  4.11694207E-05  Flux
LPRKen  1.02790814E+05  9.72849577E-05  Flux
 i2k1    0.000000        1.925500      regul_kp2
 i2k2    0.000000        1.409900      regul_kp2
 i2k3    0.000000        1.925500      regul_kp2
 i2k4    0.000000        1.191000      regul_kp2
 i2k5    0.000000        1.409900      regul_kp2
 i2k6    0.000000        1.925500      regul_kp2
 i2k7    0.000000        1.066300      regul_kp2
 i2k8    0.000000        1.191000      regul_kp2
 i2k9    0.000000        1.409900      regul_kp2
 i2k10    0.000000        1.925500      regul_kp2
 i2k11    0.000000       0.9850100      regul_kp2
 i2k12    0.000000        1.066300      regul_kp2
 i2k13    0.000000        1.191000      regul_kp2
 i2k14    0.000000        1.409900      regul_kp2
 i2k15    0.000000        1.925500      regul_kp2
 i2k16    0.000000       0.9847600      regul_kp2
 i2k17    0.000000        1.065800      regul_kp2
 i2k18    0.000000        1.190100      regul_kp2
 i2k19    0.000000        1.407100      regul_kp2
 i2k20    0.000000        1.909200      regul_kp2
 i2k21    0.000000       0.9841700      regul_kp2
 i2k22    0.000000        1.064700      regul_kp2
 i2k23    0.000000        1.187700      regul_kp2
 i2k24    0.000000        1.400500      regul_kp2
 i2k25    0.000000        1.914100      regul_kp2
 i2k26    0.000000       0.9830100      regul_kp2
 i2k27    0.000000        1.062600      regul_kp2
 i2k28    0.000000        1.183300      regul_kp2
 i2k29    0.000000        1.400500      regul_kp2
 i2k30    0.000000        1.909200      regul_kp2
 i2k31    0.000000        1.889700      regul_kp2
 i2k32    0.000000        1.752800      regul_kp2
 i2k33    0.000000        1.415800      regul_kp2
 i2k34    0.000000        1.209300      regul_kp2
 i2k35    0.000000        1.082300      regul_kp2
 i2k36    0.000000       0.9978600      regul_kp2
 i2k37    0.000000        1.540800      regul_kp2
 i2k38    0.000000        1.889700      regul_kp2
 i2k39    0.000000        1.752800      regul_kp2
 i2k40    0.000000        1.415800      regul_kp2
 i2k41    0.000000        1.209300      regul_kp2
 i2k42    0.000000        1.082300      regul_kp2
 i2k43    0.000000        1.000500      regul_kp2
 i2k44    0.000000        1.925500      regul_kp2
 i2k45    0.000000        1.283000      regul_kp2
 i2k46    0.000000        1.540800      regul_kp2
 i2k47    0.000000        1.889700      regul_kp2
 i2k48    0.000000        1.752800      regul_kp2
 i2k49    0.000000        1.415800      regul_kp2
 i2k50    0.000000        1.209300      regul_kp2
 i2k51    0.000000        1.087200      regul_kp2
 i2k52    0.000000        1.002300      regul_kp2
 i2k53    0.000000        1.409900      regul_kp2
 i2k54    0.000000        1.925500      regul_kp2
 i2k55    0.000000        1.128900      regul_kp2
 i2k56    0.000000        1.283000      regul_kp2
 i2k57    0.000000        1.540800      regul_kp2
 i2k58    0.000000        1.889700      regul_kp2
 i2k59    0.000000        1.752800      regul_kp2
 i2k60    0.000000        1.415800      regul_kp2
 i2k61    0.000000        1.219800      regul_kp2
 i2k62    0.000000        1.090500      regul_kp2
 i2k63    0.000000        1.003900      regul_kp2
 i2k64    0.000000        1.191000      regul_kp2
 i2k65    0.000000        1.409900      regul_kp2
 i2k66    0.000000        1.925500      regul_kp2
 i2k67    0.000000        1.029500      regul_kp2
 i2k68    0.000000        1.128900      regul_kp2
 i2k69    0.000000        1.283000      regul_kp2
 i2k70    0.000000        1.540800      regul_kp2
 i2k71    0.000000        1.889700      regul_kp2
 i2k72    0.000000        1.752800      regul_kp2
 i2k73    0.000000        1.444800      regul_kp2
 i2k74    0.000000        1.227200      regul_kp2
 i2k75    0.000000        1.093600      regul_kp2
 i2k76    0.000000        1.066300      regul_kp2
 i2k77    0.000000        1.191000      regul_kp2
 i2k78    0.000000        1.409900      regul_kp2
 i2k79    0.000000        1.925500      regul_kp2
 i2k80    0.000000       0.9771900      regul_kp2
 i2k81    0.000000        1.052200      regul_kp2
 i2k82    0.000000        1.170700      regul_kp2
 i2k83    0.000000        1.371500      regul_kp2
 i2k84    0.000000        1.812000      regul_kp2
 i2k85    0.000000        1.005500      regul_kp2
 i2k86    0.000000        1.025600      regul_kp2
 i2k87    0.000000        1.121200      regul_kp2
 i2k88    0.000000        1.265700      regul_kp2
 i2k89    0.000000        1.491400      regul_kp2
 i2k90    0.000000        1.751400      regul_kp2
 i2k91    0.000000        1.752800      regul_kp2
 i2k92    0.000000        1.440100      regul_kp2
 i2k93    0.000000        1.227200      regul_kp2
 i2k94    0.000000        1.065800      regul_kp2
 i2k95    0.000000        1.190100      regul_kp2
 i2k96    0.000000        1.407100      regul_kp2
 i2k97    0.000000        1.909200      regul_kp2
 i2k98    0.000000        1.096500      regul_kp2
 i2k99    0.000000        1.021800      regul_kp2
 i2k100    0.000000        1.114200      regul_kp2
 i2k101    0.000000        1.250200      regul_kp2
 i2k102    0.000000        1.451200      regul_kp2
 i2k103    0.000000        1.772200      regul_kp2
 i2k104    0.000000        1.752800      regul_kp2
 i2k105    0.000000        1.444800      regul_kp2
 i2k106    0.000000        1.064700      regul_kp2
 i2k107    0.000000        1.187700      regul_kp2
 i2k108    0.000000        1.400500      regul_kp2
 i2k109    0.000000        1.238700      regul_kp2
 i2k110    0.000000        1.914100      regul_kp2
 i2k111    0.000000        1.016900      regul_kp2
 i2k112    0.000000        1.105000      regul_kp2
 i2k113    0.000000        1.230900      regul_kp2
 i2k114    0.000000        1.451200      regul_kp2
 i2k115    0.000000        1.751400      regul_kp2
 i2k116    0.000000        1.752800      regul_kp2
 i2k117    0.000000        1.062600      regul_kp2
 i2k118    0.000000        1.183300      regul_kp2
 i2k119    0.000000        1.487500      regul_kp2
 i2k120    0.000000        1.400500      regul_kp2
 i2k121    0.000000        1.909200      regul_kp2
 i2k122    0.000000        1.409900      regul_kp2
 i2k123    0.000000        1.344300      regul_kp2
 i2k124    0.000000        1.219600      regul_kp2
 i2k125    0.000000        1.108600      regul_kp2
 i2k126    0.000000        1.024000      regul_kp2
 i2k127    0.000000        1.889700      regul_kp2
 i2k128    0.000000        1.540800      regul_kp2
 i2k129    0.000000        1.283000      regul_kp2
 i2k130    0.000000        1.128900      regul_kp2
 i2k131    0.000000        1.344300      regul_kp2
 i2k132    0.000000        1.409900      regul_kp2
 i2k133    0.000000        1.344300      regul_kp2
 i2k134    0.000000        1.219600      regul_kp2
 i2k135    0.000000        1.108600      regul_kp2
 i2k136    0.000000        1.752800      regul_kp2
 i2k137    0.000000        1.889700      regul_kp2
 i2k138    0.000000        1.540800      regul_kp2
 i2k139    0.000000        1.283000      regul_kp2
 i2k140    0.000000        1.128900      regul_kp2
 i2k141    0.000000        1.925500      regul_kp2
 i2k142    0.000000        1.219600      regul_kp2
 i2k143    0.000000        1.344300      regul_kp2
 i2k144    0.000000        1.409900      regul_kp2
 i2k145    0.000000        1.344300      regul_kp2
 i2k146    0.000000        1.219600      regul_kp2
 i2k147    0.000000        1.108600      regul_kp2
 i2k148    0.000000        1.030900      regul_kp2
 i2k149    0.000000        1.415800      regul_kp2
 i2k150    0.000000        1.752800      regul_kp2
 i2k151    0.000000        1.889700      regul_kp2
 i2k152    0.000000        1.540800      regul_kp2
 i2k153    0.000000        1.283000      regul_kp2
 i2k154    0.000000        1.135400      regul_kp2
 i2k155    0.000000        1.409900      regul_kp2
 i2k156    0.000000        1.925500      regul_kp2
 i2k157    0.000000        1.108600      regul_kp2
 i2k158    0.000000        1.219600      regul_kp2
 i2k159    0.000000        1.344300      regul_kp2
 i2k160    0.000000        1.409900      regul_kp2
 i2k161    0.000000        1.344300      regul_kp2
 i2k162    0.000000        1.219600      regul_kp2
 i2k163    0.000000        1.121000      regul_kp2
 i2k164    0.000000        1.036300      regul_kp2
 i2k165    0.000000        1.209300      regul_kp2
 i2k166    0.000000        1.415800      regul_kp2
 i2k167    0.000000        1.752800      regul_kp2
 i2k168    0.000000        1.889700      regul_kp2
 i2k169    0.000000        1.540800      regul_kp2
 i2k170    0.000000        1.298500      regul_kp2
 i2k171    0.000000        1.140000      regul_kp2
 i2k172    0.000000        1.191000      regul_kp2
 i2k173    0.000000        1.409900      regul_kp2
 i2k174    0.000000        1.925500      regul_kp2
 i2k175    0.000000        1.024000      regul_kp2
 i2k176    0.000000        1.108600      regul_kp2
 i2k177    0.000000        1.219600      regul_kp2
 i2k178    0.000000        1.344300      regul_kp2
 i2k179    0.000000        1.409900      regul_kp2
 i2k180    0.000000        1.344300      regul_kp2
 i2k181    0.000000        1.243800      regul_kp2
 i2k182    0.000000        1.131100      regul_kp2
 i2k183    0.000000        1.042400      regul_kp2
 i2k184    0.000000        1.082300      regul_kp2
 i2k185    0.000000        1.209300      regul_kp2
 i2k186    0.000000        1.415800      regul_kp2
 i2k187    0.000000        1.752800      regul_kp2
 i2k188    0.000000        1.889700      regul_kp2
 i2k189    0.000000        1.589800      regul_kp2
 i2k190    0.000000        1.309600      regul_kp2
 i2k191    0.000000        1.144200      regul_kp2
 i2k192    0.000000        1.066300      regul_kp2
 i2k193    0.000000        1.191000      regul_kp2
 i2k194    0.000000        1.409900      regul_kp2
 i2k195    0.000000        1.925500      regul_kp2
 i2k196    0.000000        1.000700      regul_kp2
 i2k197    0.000000        1.076100      regul_kp2
 i2k198    0.000000        1.194600      regul_kp2
 i2k199    0.000000        1.362100      regul_kp2
 i2k200    0.000000        1.565400      regul_kp2
 i2k201    0.000000        1.052200      regul_kp2
 i2k202    0.000000        1.752800      regul_kp2
 i2k203    0.000000        1.170700      regul_kp2
 i2k204    0.000000        1.371500      regul_kp2
 i2k205    0.000000        1.812000      regul_kp2
 i2k206    0.000000        1.000700      regul_kp2
 i2k207    0.000000        1.086700      regul_kp2
 i2k208    0.000000        1.211100      regul_kp2
 i2k209    0.000000        1.405200      regul_kp2
 i2k210    0.000000        1.889700      regul_kp2
 i2k211    0.000000        1.056600      regul_kp2
 i2k212    0.000000        1.177100      regul_kp2
 i2k213    0.000000        1.388100      regul_kp2
 i2k214    0.000000        1.925500      regul_kp2
 i2k215    0.000000        1.095900      regul_kp2
 i2k216    0.000000        1.196100      regul_kp2
 i2k217    0.000000        1.302400      regul_kp2
 i2k218    0.000000        1.355300      regul_kp2
 i2k219    0.000000        1.344300      regul_kp2
 i2k220    0.000000        1.239700      regul_kp2
 i2k221    0.000000        1.131100      regul_kp2
 i2k222    0.000000        1.076600      regul_kp2
 i2k223    0.000000        1.197300      regul_kp2
 i2k224    0.000000        1.384900      regul_kp2
 i2k225    0.000000        1.656500      regul_kp2
 i2k226    0.000000        1.052200      regul_kp2
 i2k227    0.000000        1.889700      regul_kp2
 i2k228    0.000000        1.581800      regul_kp2
 i2k229    0.000000        1.309600      regul_kp2
 i2k230    0.000000        1.065800      regul_kp2
 i2k231    0.000000        1.190100      regul_kp2
 i2k232    0.000000        1.407100      regul_kp2
 i2k233    0.000000        1.909200      regul_kp2
 i2k234    0.000000        1.148200      regul_kp2
 i2k235    0.000000        1.085300      regul_kp2
 i2k236    0.000000        1.177200      regul_kp2
 i2k237    0.000000        1.270600      regul_kp2
 i2k238    0.000000        1.363800      regul_kp2
 i2k239    0.000000        1.344300      regul_kp2
 i2k240    0.000000        1.243800      regul_kp2
 i2k241    0.000000        1.071300      regul_kp2
 i2k242    0.000000        1.186400      regul_kp2
 i2k243    0.000000        1.358500      regul_kp2
 i2k244    0.000000        1.153500      regul_kp2
 i2k245    0.000000        1.671600      regul_kp2
 i2k246    0.000000        1.889700      regul_kp2
 i2k247    0.000000        1.589800      regul_kp2
 i2k248    0.000000        1.064700      regul_kp2
 i2k249    0.000000        1.187700      regul_kp2
 i2k250    0.000000        1.400500      regul_kp2
 i2k251    0.000000        1.327200      regul_kp2
 i2k252    0.000000        1.147000      regul_kp2
 i2k253    0.000000        1.914100      regul_kp2
 i2k254    0.000000        1.072600      regul_kp2
 i2k255    0.000000        1.155400      regul_kp2
 i2k256    0.000000        1.270600      regul_kp2
 i2k257    0.000000        1.355300      regul_kp2
 i2k258    0.000000        1.344300      regul_kp2
 i2k259    0.000000        1.064300      regul_kp2
 i2k260    0.000000        1.172500      regul_kp2
 i2k261    0.000000        1.289000      regul_kp2
 i2k262    0.000000        1.358500      regul_kp2
 i2k263    0.000000        1.656500      regul_kp2
 i2k264    0.000000        1.889700      regul_kp2
 i2k265    0.000000        1.062600      regul_kp2
 i2k266    0.000000        1.183300      regul_kp2
 i2k267    0.000000        1.668300      regul_kp2
 i2k268    0.000000        1.320100      regul_kp2
 i2k269    0.000000        1.400500      regul_kp2
 i2k270    0.000000        1.909200      regul_kp2
 i2k271    0.000000        1.190800      regul_kp2
 i2k272    0.000000        1.161800      regul_kp2
 i2k273    0.000000        1.102300      regul_kp2
 i2k274    0.000000        1.037500      regul_kp2
 i2k275    0.000000        1.398800      regul_kp2
 i2k276    0.000000        1.297200      regul_kp2
 i2k277    0.000000        1.173500      regul_kp2
 i2k278    0.000000        1.072900      regul_kp2
 i2k279    0.000000        1.921400      regul_kp2
 i2k280    0.000000        1.607600      regul_kp2
 i2k281    0.000000        1.322800      regul_kp2
 i2k282    0.000000        1.153400      regul_kp2
 i2k283    0.000000        1.170700      regul_kp2
 i2k284    0.000000        1.190800      regul_kp2
 i2k285    0.000000        1.161800      regul_kp2
 i2k286    0.000000        1.102300      regul_kp2
 i2k287    0.000000        1.383000      regul_kp2
 i2k288    0.000000        1.398800      regul_kp2
 i2k289    0.000000        1.297200      regul_kp2
 i2k290    0.000000        1.173500      regul_kp2
 i2k291    0.000000        1.072900      regul_kp2
 i2k292    0.000000        1.679200      regul_kp2
 i2k293    0.000000        1.921400      regul_kp2
 i2k294    0.000000        1.607600      regul_kp2
 i2k295    0.000000        1.322800      regul_kp2
 i2k296    0.000000        1.153400      regul_kp2
 i2k297    0.000000        1.925500      regul_kp2
 i2k298    0.000000        1.114800      regul_kp2
 i2k299    0.000000        1.170700      regul_kp2
 i2k300    0.000000        1.190800      regul_kp2
 i2k301    0.000000        1.161800      regul_kp2
 i2k302    0.000000        1.102300      regul_kp2
 i2k303    0.000000        1.268400      regul_kp2
 i2k304    0.000000        1.383000      regul_kp2
 i2k305    0.000000        1.398800      regul_kp2
 i2k306    0.000000        1.297200      regul_kp2
 i2k307    0.000000        1.173500      regul_kp2
 i2k308    0.000000        1.082700      regul_kp2
 i2k309    0.000000        1.366900      regul_kp2
 i2k310    0.000000        1.679200      regul_kp2
 i2k311    0.000000        1.921400      regul_kp2
 i2k312    0.000000        1.607600      regul_kp2
 i2k313    0.000000        1.322800      regul_kp2
 i2k314    0.000000        1.161000      regul_kp2
 i2k315    0.000000        1.409900      regul_kp2
 i2k316    0.000000        1.925500      regul_kp2
 i2k317    0.000000        1.114800      regul_kp2
 i2k318    0.000000        1.170700      regul_kp2
 i2k319    0.000000        1.190800      regul_kp2
 i2k320    0.000000        1.161800      regul_kp2
 i2k321    0.000000        1.102300      regul_kp2
 i2k322    0.000000        1.148400      regul_kp2
 i2k323    0.000000        1.268400      regul_kp2
 i2k324    0.000000        1.383000      regul_kp2
 i2k325    0.000000        1.398800      regul_kp2
 i2k326    0.000000        1.297200      regul_kp2
 i2k327    0.000000        1.192100      regul_kp2
 i2k328    0.000000        1.090500      regul_kp2
 i2k329    0.000000        1.180100      regul_kp2
 i2k330    0.000000        1.366900      regul_kp2
 i2k331    0.000000        1.679200      regul_kp2