pcf
* control data
restart regularisation
     698     226       8      14      11
6  2  single  point  1  0  0
2.000000e+001  -3.000000e+000  3.000000e-001  1.000000e-002  -7 999 lamforgive
1.000000e+001  1.000000e+001  1.000000e-003
1.000000e-001 1 noaui noboundscale
20 1.000000e-002  3  3  1.000000e-002  3
0  0  0   PARSAVEITN reisaveitn nojcosaveitn
* singular value decomposition
  1
  19  5.000000e-007
  1
* parameter groups
Kxp     relative   1.000000e-002  0.000000e+000  switch  2.000000e+000  parabolic 1.0e-5 0.5 smaller
Kzp     relative   1.000000e-002  0.000000e+000  switch  2.000000e+000  parabolic 1.0e-5 0.5 smaller
Kx     relative   1.000000e-002  0.000000e+000  switch  2.000000e+000  parabolic 1.0e-5 0.5 smaller
Kz     relative   1.000000e-002  0.000000e+000  switch  2.000000e+000  parabolic 1.0e-5 0.5 smaller
Rch relative   1.000000e-002  0.000000e+000  switch  2.000000e+000  parabolic 1.0e-5 0.5 smaller
KM relative   1.000000e-002  0.000000e+000  switch  2.000000e+000  parabolic 1.0e-5 0.5 smaller
Stor relative   1.000000e-002  0.000000e+000  switch  2.000000e+000  parabolic 1.0e-5 0.5 smaller
SFRc relative   1.000000e-002  0.000000e+000  switch  2.000000e+000  parabolic 1.0e-5 0.5 smaller
* parameter data
sfrc log factor   75.0      0.5 200.0 sfrc 1 0 1
rm1     log     factor    1.140405    7.500000E-01     2.500000E+00     rch     1     0     1
rm3     log     factor     1.140405     7.500000E-01     2.500000E+00     rch     1     0     1
rm4     log     factor     1.140405     7.500000E-01     2.500000E+00     rch     1     0     1
rm5     log     factor     1.140405     7.500000E-01     2.500000E+00     rch     1     0     1
rm6     log     factor     1.140405     7.500000E-01     2.500000E+00     rch     1     0     1
rm7     log     factor     1.140405    7.500000E-01     2.500000E+00     rch     1     0     1
rm8     log     factor     1.140405     7.500000E-01     2.500000E+00     rch     1     0     1
rm9     log     factor     1.140405    7.500000E-01     2.500000E+00     rch     1     0     1
rm10     log     factor     1.140405     7.500000E-01     2.500000E+00     rch     1     0     1
rm11     log     factor     1.140405    7.500000E-01     2.500000E+00     rch     1     0     1
rm12     log     factor     1.140405     7.500000E-01     2.500000E+00     rch     1     0     1
ss     log     factor     0.001900     1.000000E-03     3.000000E-03     Stor     1     0     1
sy     log     factor     0.150000     1.200000E-01     2.400000E-01     Stor     1     0     1
HKM1     fixed     factor     1.000000     2.500000E-01     2.500000E+00     Km     1     0     1
HKM2     fixed     factor     1.000000     2.500000E-01     2.500000E+00     Km     1     0     1
HKM3     fixed     factor     1.000000     2.500000E-01     2.500000E+00     Km     1     0     1
VKM1     fixed     factor     1.000000     2.500000E-01     2.500000E+00     Km     1     0     1
VKM2     fixed     factor     1.000000     2.500000E-01     2.500000E+00     Km     1     0     1
VKM3     fixed     factor     1.000000     2.500000E-01     2.500000E+00     Km     1     0     1
kx1 fixed factor    19.23794      1.0 50.0 kx 1 0 1
kx2 fixed factor    25.52462      1.0 50.0 kx 1 0 1
kx21 fixed factor    24.93108      1.0 50.0 kx 1 0 1
kx3 fixed factor    23.56273      1.0 50.0 kx 1 0 1
kx4 fixed factor    1.021700      0.1 10.0 kx 1 0 1
kx5 fixed factor    21.16760      1.0 50.0 kx 1 0 1
kx6 fixed factor    16.40179      1.0 50.0 kx 1 0 1
kx8 fixed factor    1.017082      0.1 10.0 kx 1 0 1
kx81 fixed factor    1.005842      0.1 10.0 kx 1 0 1
kx13 fixed factor    157.9511      40.0 250.0 kx 1 0 1
kx14 fixed factor    47.83195      20.0 80.0 kx 1 0 1
kx15 fixed factor    48.71790      20.0 80.0 kx 1 0 1
kz1 fixed factor    2.003538      0.10 5.0 kz 1 0 1
kz2 fixed factor    2.455603      0.10 5.0  kz 1 0 1
kz21 fixed factor    2.583414      0.10 5.0  kz 1 0 1
kz3 fixed factor    2.479454      0.10 5.0  kz 1 0 1
kz4 fixed factor   9.9419264E-02  0.01 1.0 kz 1 0 1
kz5 fixed factor    30.60792      1.0 50.0 kz 1 0 1
kz6 fixed factor    15.61768      1.0 50.0 kz 1 0 1
kz8 fixed factor   0.9590616      0.1 10.0 kz 1 0 1
kz81 fixed factor   0.9822517      0.1 10.0 kz 1 0 1
kz13 fixed factor    10.02539      3.0 130.0 kz 1 0 1
kz14 fixed factor    3.500713      2.0 8.0 kz 1 0 1
kz15 fixed factor    3.738628      2.0 8.0 kz 1 0 1
kpkp1  fixed  factor    213.8025      1.20e+02  5.00e+02  kxp  1  0  1
kpkp2  fixed  factor    218.9222      1.20e+02  5.00e+02  kxp  1  0  1
kpkp3  fixed  factor    214.2358      1.20e+02  5.00e+02  kxp  1  0  1
kpkp4  fixed  factor    221.9033      1.20e+02  5.00e+02  kxp  1  0  1
kpkp5  fixed  factor    220.6002      1.20e+02  5.00e+02  kxp  1  0  1
kpkp6  fixed  factor    219.9219      1.20e+02  5.00e+02  kxp  1  0  1
kpkp7  fixed  factor    230.3635      1.20e+02  5.00e+02  kxp  1  0  1
kpkp8  fixed  factor    223.3713      1.20e+02  5.00e+02  kxp  1  0  1
kpkp9  fixed  factor    223.0581      1.20e+02  5.00e+02  kxp  1  0  1
kpkp10  fixed  factor    221.3810      1.20e+02  5.00e+02  kxp  1  0  1
kpkp11  fixed  factor    216.2354      1.20e+02  5.00e+02  kxp  1  0  1
kpkp12  fixed  factor    214.2138      1.20e+02  5.00e+02  kxp  1  0  1
kpkp13  fixed  factor    220.2174      1.20e+02  5.00e+02  kxp  1  0  1
kpkp14  fixed  factor    221.1409      1.20e+02  5.00e+02  kxp  1  0  1
kpkp15  fixed  factor    217.6525      1.20e+02  5.00e+02  kxp  1  0  1
kpkp16  fixed  factor    218.2015      1.20e+02  5.00e+02  kxp  1  0  1
kpkp17  fixed  factor    224.0931      1.20e+02  5.00e+02  kxp  1  0  1
kpkp18  fixed  factor    223.3384      1.20e+02  5.00e+02  kxp  1  0  1
kpkp19  fixed  factor    217.5401      1.20e+02  5.00e+02  kxp  1  0  1
kpkp20  fixed  factor    232.4312      1.20e+02  5.00e+02  kxp  1  0  1
kpkp21  fixed  factor    221.8596      1.20e+02  5.00e+02  kxp  1  0  1
kpkp22  fixed  factor    226.1667      1.20e+02  5.00e+02  kxp  1  0  1
kpkp23  fixed  factor    217.7518      1.20e+02  5.00e+02  kxp  1  0  1
kpkp24  fixed  factor    219.9882      1.20e+02  5.00e+02  kxp  1  0  1
kpkp25  fixed  factor    223.8274      1.20e+02  5.00e+02  kxp  1  0  1
kpkp26  fixed  factor    221.7040      1.20e+02  5.00e+02  kxp  1  0  1
kpkp27  fixed  factor    232.6614      1.20e+02  5.00e+02  kxp  1  0  1
kpkp28  fixed  factor    227.5656      1.20e+02  5.00e+02  kxp  1  0  1
kpkp29  fixed  factor    217.5507      1.20e+02  5.00e+02  kxp  1  0  1
kpkp30  fixed  factor    217.0030      1.20e+02  5.00e+02  kxp  1  0  1
kpkp31  fixed  factor    225.2604      1.20e+02  5.00e+02  kxp  1  0  1
kpkp32  fixed  factor    227.0420      1.20e+02  5.00e+02  kxp  1  0  1
kpkp33  fixed  factor    217.1118      1.20e+02  5.00e+02  kxp  1  0  1
kpkp34  fixed  factor    201.9115      1.20e+02  5.00e+02  kxp  1  0  1
kpkp35  fixed  factor    225.3331      1.20e+02  5.00e+02  kxp  1  0  1
kpkp36  fixed  factor    217.3563      1.20e+02  5.00e+02  kxp  1  0  1
kpkp37  fixed  factor    222.6662      1.20e+02  5.00e+02  kxp  1  0  1
kpkp38  fixed  factor    218.4004      1.20e+02  5.00e+02  kxp  1  0  1
kpkp39  fixed  factor    213.2718      1.20e+02  5.00e+02  kxp  1  0  1
kpkp40  fixed  factor    220.6057      1.20e+02  5.00e+02  kxp  1  0  1
kpkp41  fixed  factor    218.3620      1.20e+02  5.00e+02  kxp  1  0  1
kpkp42  fixed  factor    214.2271      1.20e+02  5.00e+02  kxp  1  0  1
kpkp43  fixed  factor    231.2629      1.20e+02  5.00e+02  kxp  1  0  1
kpkp44  fixed  factor    209.5357      1.20e+02  5.00e+02  kxp  1  0  1
kpkp45  fixed  factor    224.8107      1.20e+02  5.00e+02  kxp  1  0  1
kpkp46  fixed  factor    228.9699      1.20e+02  5.00e+02  kxp  1  0  1
kpkp47  fixed  factor    223.7344      1.20e+02  5.00e+02  kxp  1  0  1
kpkp48  fixed  factor    225.3647      1.20e+02  5.00e+02  kxp  1  0  1
kpkp49  fixed  factor    225.3743      1.20e+02  5.00e+02  kxp  1  0  1
kpkp50  fixed  factor    212.0571      1.20e+02  5.00e+02  kxp  1  0  1
kpkp51  fixed  factor    206.2442      1.20e+02  5.00e+02  kxp  1  0  1
kpkp52  fixed  factor    233.5251      1.20e+02  5.00e+02  kxp  1  0  1
kpkp53  fixed  factor    215.8987      1.20e+02  5.00e+02  kxp  1  0  1
kpkp54  fixed  factor    219.7660      1.20e+02  5.00e+02  kxp  1  0  1
kpkp55  fixed  factor    220.0416      1.20e+02  5.00e+02  kxp  1  0  1
kpkp56  fixed  factor    219.5079      1.20e+02  5.00e+02  kxp  1  0  1
kpkp57  fixed  factor    228.8093      1.20e+02  5.00e+02  kxp  1  0  1
kpkp58  fixed  factor    224.9919      1.20e+02  5.00e+02  kxp  1  0  1
kpkp59  fixed  factor    224.0044      1.20e+02  5.00e+02  kxp  1  0  1
kpkp60  fixed  factor    230.4915      1.20e+02  5.00e+02  kxp  1  0  1
kpkp61  fixed  factor    215.0015      1.20e+02  5.00e+02  kxp  1  0  1
kpkp62  fixed  factor    223.1562      1.20e+02  5.00e+02  kxp  1  0  1
kpkp63  fixed  factor    226.3421      1.20e+02  5.00e+02  kxp  1  0  1
kpkp64  fixed  factor    227.4098      1.20e+02  5.00e+02  kxp  1  0  1
kpkp65  fixed  factor    213.3844      1.20e+02  5.00e+02  kxp  1  0  1
kpkp66  fixed  factor    220.2454      1.20e+02  5.00e+02  kxp  1  0  1
kpkp67  fixed  factor    272.3346      1.20e+02  5.00e+02  kxp  1  0  1
kpkp68  fixed  factor    234.9071      1.20e+02  5.00e+02  kxp  1  0  1
kpkp69  fixed  factor    220.4724      1.20e+02  5.00e+02  kxp  1  0  1
kpkp70  fixed  factor    207.8784      1.20e+02  5.00e+02  kxp  1  0  1
kpkp71  fixed  factor    213.3927      1.20e+02  5.00e+02  kxp  1  0  1
kpkp72  fixed  factor    219.6402      1.20e+02  5.00e+02  kxp  1  0  1
kpkp73  fixed  factor    217.7837      1.20e+02  5.00e+02  kxp  1  0  1
kpkp74  fixed  factor    213.2801      1.20e+02  5.00e+02  kxp  1  0  1
kpkp75  fixed  factor    219.4315      1.20e+02  5.00e+02  kxp  1  0  1
kpkp76  fixed  factor    217.9129      1.20e+02  5.00e+02  kxp  1  0  1
kpkp77  fixed  factor    226.3743      1.20e+02  5.00e+02  kxp  1  0  1
kpkp78  fixed  factor    259.0056      1.20e+02  5.00e+02  kxp  1  0  1
kpkp79  fixed  factor    274.0763      1.20e+02  5.00e+02  kxp  1  0  1
kpkp80  fixed  factor    210.7747      1.20e+02  5.00e+02  kxp  1  0  1
kpkp81  fixed  factor    219.3833      1.20e+02  5.00e+02  kxp  1  0  1
kpkp82  fixed  factor    226.4845      1.20e+02  5.00e+02  kxp  1  0  1
kpkp83  fixed  factor    209.5811      1.20e+02  5.00e+02  kxp  1  0  1
kpkp84  fixed  factor    222.6196      1.20e+02  5.00e+02  kxp  1  0  1
kpkp85  fixed  factor    223.9248      1.20e+02  5.00e+02  kxp  1  0  1
kpkp86  fixed  factor    225.2675      1.20e+02  5.00e+02  kxp  1  0  1
kpkp87  fixed  factor    213.9872      1.20e+02  5.00e+02  kxp  1  0  1
kpkp88  fixed  factor    223.2665      1.20e+02  5.00e+02  kxp  1  0  1
kpkp89  fixed  factor    225.1914      1.20e+02  5.00e+02  kxp  1  0  1
kpkp90  fixed  factor    206.7453      1.20e+02  5.00e+02  kxp  1  0  1
kpkp91  fixed  factor    234.0155      1.20e+02  5.00e+02  kxp  1  0  1
kpkp92  fixed  factor    244.1468      1.20e+02  5.00e+02  kxp  1  0  1
kpkp93  fixed  factor    230.2704      1.20e+02  5.00e+02  kxp  1  0  1
kpkp94  fixed  factor    216.4503      1.20e+02  5.00e+02  kxp  1  0  1
kpkp95  fixed  factor    221.6827      1.20e+02  5.00e+02  kxp  1  0  1
kpkp96  fixed  factor    208.2119      1.20e+02  5.00e+02  kxp  1  0  1
kpkp97  fixed  factor    219.8008      1.20e+02  5.00e+02  kxp  1  0  1
kpkp98  fixed  factor    216.8209      1.20e+02  5.00e+02  kxp  1  0  1
kpkp99  fixed  factor    225.0557      1.20e+02  5.00e+02  kxp  1  0  1
kpkp100  fixed  factor    225.4486      1.20e+02  5.00e+02  kxp  1  0  1
kpkp101  fixed  factor    216.6105      1.20e+02  5.00e+02  kxp  1  0  1
kpkp102  fixed  factor    222.0406      1.20e+02  5.00e+02  kxp  1  0  1
kpkp103  fixed  factor    215.1505      1.20e+02  5.00e+02  kxp  1  0  1
kpkp104  fixed  factor    213.7060      1.20e+02  5.00e+02  kxp  1  0  1
kpkp105  fixed  factor    235.4192      1.20e+02  5.00e+02  kxp  1  0  1
kpkp106  fixed  factor    230.3665      1.20e+02  5.00e+02  kxp  1  0  1
kpkp107  fixed  factor    220.4675      1.20e+02  5.00e+02  kxp  1  0  1
kpkp108  fixed  factor    223.5303      1.20e+02  5.00e+02  kxp  1  0  1
kpkp109  fixed  factor    217.0424      1.20e+02  5.00e+02  kxp  1  0  1
kpkp110  fixed  factor    221.7577      1.20e+02  5.00e+02  kxp  1  0  1
kpkp111  fixed  factor    225.4882      1.20e+02  5.00e+02  kxp  1  0  1
kpkp112  fixed  factor    225.9168      1.20e+02  5.00e+02  kxp  1  0  1
kpkp113  fixed  factor    216.8617      1.20e+02  5.00e+02  kxp  1  0  1
kpkp114  fixed  factor    215.4134      1.20e+02  5.00e+02  kxp  1  0  1
kpkp115  fixed  factor    224.4164      1.20e+02  5.00e+02  kxp  1  0  1
kpkp116  fixed  factor    209.3847      1.20e+02  5.00e+02  kxp  1  0  1
kpkp117  fixed  factor    224.2827      1.20e+02  5.00e+02  kxp  1  0  1
kpkp118  fixed  factor    233.6195      1.20e+02  5.00e+02  kxp  1  0  1
kpkp119  fixed  factor    231.5544      1.20e+02  5.00e+02  kxp  1  0  1
kpkp120  fixed  factor    226.7025      1.20e+02  5.00e+02  kxp  1  0  1
kpkp121  fixed  factor    218.5355      1.20e+02  5.00e+02  kxp  1  0  1
kpkp122  fixed  factor    227.2763      1.20e+02  5.00e+02  kxp  1  0  1
kpkp123  fixed  factor    214.5561      1.20e+02  5.00e+02  kxp  1  0  1
kpkp124  fixed  factor    227.9146      1.20e+02  5.00e+02  kxp  1  0  1
kpkp125  fixed  factor    222.6100      1.20e+02  5.00e+02  kxp  1  0  1
kpkp126  fixed  factor    220.7942      1.20e+02  5.00e+02  kxp  1  0  1
kpkp127  fixed  factor    224.5103      1.20e+02  5.00e+02  kxp  1  0  1
kpkp128  fixed  factor    226.3728      1.20e+02  5.00e+02  kxp  1  0  1
kpkp129  fixed  factor    235.5480      1.20e+02  5.00e+02  kxp  1  0  1
kpkp130  fixed  factor    230.0134      1.20e+02  5.00e+02  kxp  1  0  1
kpkp131  fixed  factor    217.7741      1.20e+02  5.00e+02  kxp  1  0  1
kpkp132  fixed  factor    221.7135      1.20e+02  5.00e+02  kxp  1  0  1
kpkp133  fixed  factor    237.7123      1.20e+02  5.00e+02  kxp  1  0  1
kpkp134  fixed  factor    226.5045      1.20e+02  5.00e+02  kxp  1  0  1
kpkp135  fixed  factor    221.2972      1.20e+02  5.00e+02  kxp  1  0  1
kpkp136  fixed  factor    228.7243      1.20e+02  5.00e+02  kxp  1  0  1
kpkp137  fixed  factor    218.0262      1.20e+02  5.00e+02  kxp  1  0  1
kpkp138  fixed  factor    225.6295      1.20e+02  5.00e+02  kxp  1  0  1
kpkp139  fixed  factor    214.0881      1.20e+02  5.00e+02  kxp  1  0  1
kpkp140  fixed  factor    220.7291      1.20e+02  5.00e+02  kxp  1  0  1
kpkp141  fixed  factor    231.7861      1.20e+02  5.00e+02  kxp  1  0  1
kpkp142  fixed  factor    216.4080      1.20e+02  5.00e+02  kxp  1  0  1
kpkp143  fixed  factor    219.7917      1.20e+02  5.00e+02  kxp  1  0  1
kpkp144  fixed  factor    220.0447      1.20e+02  5.00e+02  kxp  1  0  1
kpkp145  fixed  factor    228.9766      1.20e+02  5.00e+02  kxp  1  0  1
kpkp146  fixed  factor    224.5179      1.20e+02  5.00e+02  kxp  1  0  1
kpkp147  fixed  factor    233.9723      1.20e+02  5.00e+02  kxp  1  0  1
kpkp148  fixed  factor    240.3990      1.20e+02  5.00e+02  kxp  1  0  1
kpkp149  fixed  factor    219.6668      1.20e+02  5.00e+02  kxp  1  0  1
kpkp150  fixed  factor    230.8417      1.20e+02  5.00e+02  kxp  1  0  1
kpkp151  fixed  factor    215.7014      1.20e+02  5.00e+02  kxp  1  0  1
kpkp152  fixed  factor    215.7829      1.20e+02  5.00e+02  kxp  1  0  1
kpkp153  fixed  factor    217.5224      1.20e+02  5.00e+02  kxp  1  0  1
kpkp154  fixed  factor    225.6350      1.20e+02  5.00e+02  kxp  1  0  1
kpkp155  fixed  factor    240.9710      1.20e+02  5.00e+02  kxp  1  0  1
kpkp156  fixed  factor    216.3641      1.20e+02  5.00e+02  kxp  1  0  1
kpkp157  fixed  factor    233.0762      1.20e+02  5.00e+02  kxp  1  0  1
kpkp158  fixed  factor    220.2177      1.20e+02  5.00e+02  kxp  1  0  1
kpkp159  fixed  factor    218.2379      1.20e+02  5.00e+02  kxp  1  0  1
kpkp160  fixed  factor    214.7446      1.20e+02  5.00e+02  kxp  1  0  1
kpkp161  fixed  factor    244.1592      1.20e+02  5.00e+02  kxp  1  0  1
kpkp162  fixed  factor    217.9758      1.20e+02  5.00e+02  kxp  1  0  1
kpkp163  fixed  factor    223.9397      1.20e+02  5.00e+02  kxp  1  0  1
kpkp164  fixed  factor    226.1829      1.20e+02  5.00e+02  kxp  1  0  1
kpkp165  fixed  factor    227.1446      1.20e+02  5.00e+02  kxp  1  0  1
kpkp166  fixed  factor    217.2752      1.20e+02  5.00e+02  kxp  1  0  1
kpkp167  fixed  factor    216.9877      1.20e+02  5.00e+02  kxp  1  0  1
kpkp168  fixed  factor    217.9164      1.20e+02  5.00e+02  kxp  1  0  1
kpkp169  fixed  factor    211.5343      1.20e+02  5.00e+02  kxp  1  0  1
kpkp170  fixed  factor    217.3246      1.20e+02  5.00e+02  kxp  1  0  1
kpkp171  fixed  factor    185.9342      1.20e+02  5.00e+02  kxp  1  0  1
kpkp172  fixed  factor    215.5695      1.20e+02  5.00e+02  kxp  1  0  1
kpkp173  fixed  factor    205.9605      1.20e+02  5.00e+02  kxp  1  0  1
kpkp174  fixed  factor    237.5313      1.20e+02  5.00e+02  kxp  1  0  1
kpkp175  fixed  factor    226.6306      1.20e+02  5.00e+02  kxp  1  0  1
kpkp176  fixed  factor    353.0317      1.20e+02  5.00e+02  kxp  1  0  1
kpkp177  fixed  factor    232.2315      1.20e+02  5.00e+02  kxp  1  0  1
kpkp178  fixed  factor    214.3882      1.20e+02  5.00e+02  kxp  1  0  1
kpkp179  fixed  factor    217.0889      1.20e+02  5.00e+02  kxp  1  0  1
kpkp180  fixed  factor    226.3760      1.20e+02  5.00e+02  kxp  1  0  1
kpkp181  fixed  factor    216.4415      1.20e+02  5.00e+02  kxp  1  0  1
kpkp182  fixed  factor    301.6697      1.20e+02  5.00e+02  kxp  1  0  1
kpkp183  fixed  factor    222.5885      1.20e+02  5.00e+02  kxp  1  0  1
kpkp184  fixed  factor    224.8126      1.20e+02  5.00e+02  kxp  1  0  1
kpkp185  fixed  factor    200.7745      1.20e+02  5.00e+02  kxp  1  0  1
kpkp186  fixed  factor    200.3013      1.20e+02  5.00e+02  kxp  1  0  1
kpkp187  fixed  factor    220.4046      1.20e+02  5.00e+02  kxp  1  0  1
kpkp188  fixed  factor    222.9837      1.20e+02  5.00e+02  kxp  1  0  1
kpkp189  fixed  factor    236.6447      1.20e+02  5.00e+02  kxp  1  0  1
kpkp190  fixed  factor    200.8656      1.20e+02  5.00e+02  kxp  1  0  1
kpkp191  fixed  factor    225.9315      1.20e+02  5.00e+02  kxp  1  0  1
kpkp192  fixed  factor    231.9248      1.20e+02  5.00e+02  kxp  1  0  1
kpkp193  fixed  factor    227.0230      1.20e+02  5.00e+02  kxp  1  0  1
kpkp194  fixed  factor    207.2882      1.20e+02  5.00e+02  kxp  1  0  1
kpkp195  fixed  factor    354.2094      1.20e+02  5.00e+02  kxp  1  0  1
kpkp196  fixed  factor    218.7768      1.20e+02  5.00e+02  kxp  1  0  1
kpkp197  fixed  factor    223.4546      1.20e+02  5.00e+02  kxp  1  0  1
kpkp198  fixed  factor    292.9936      1.20e+02  5.00e+02  kxp  1  0  1
kpkp199  fixed  factor    224.8135      1.20e+02  5.00e+02  kxp  1  0  1
kpkp200  fixed  factor    208.7513      1.20e+02  5.00e+02  kxp  1  0  1
kpkp201  fixed  factor    212.0539      1.20e+02  5.00e+02  kxp  1  0  1
kpkp202  fixed  factor    226.9863      1.20e+02  5.00e+02  kxp  1  0  1
kpkp203  fixed  factor    236.4774      1.20e+02  5.00e+02  kxp  1  0  1
kpkp204  fixed  factor    226.9775      1.20e+02  5.00e+02  kxp  1  0  1
kpkp205  fixed  factor    222.3988      1.20e+02  5.00e+02  kxp  1  0  1
kpkp206  fixed  factor    249.6908      1.20e+02  5.00e+02  kxp  1  0  1
kpkp207  fixed  factor    245.0100      1.20e+02  5.00e+02  kxp  1  0  1
kpkp208  fixed  factor    229.9512      1.20e+02  5.00e+02  kxp  1  0  1
kpkp209  fixed  factor    216.3257      1.20e+02  5.00e+02  kxp  1  0  1
kpkp210  fixed  factor    227.0675      1.20e+02  5.00e+02  kxp  1  0  1
kpkp211  fixed  factor    215.3631      1.20e+02  5.00e+02  kxp  1  0  1
kpkp212  fixed  factor    227.5629      1.20e+02  5.00e+02  kxp  1  0  1
kpkp213  fixed  factor    221.1581      1.20e+02  5.00e+02  kxp  1  0  1
kpkp214  fixed  factor    239.5048      1.20e+02  5.00e+02  kxp  1  0  1
kpkp215  fixed  factor    220.1932      1.20e+02  5.00e+02  kxp  1  0  1
kpkp216  fixed  factor    216.4325      1.20e+02  5.00e+02  kxp  1  0  1
kpkp217  fixed  factor    225.7293      1.20e+02  5.00e+02  kxp  1  0  1
kpkp218  fixed  factor    229.0719      1.20e+02  5.00e+02  kxp  1  0  1
kpkp219  fixed  factor    218.4150      1.20e+02  5.00e+02  kxp  1  0  1
kpkp220  fixed  factor    222.9470      1.20e+02  5.00e+02  kxp  1  0  1
kpkp221  fixed  factor    236.9169      1.20e+02  5.00e+02  kxp  1  0  1
kpkp222  fixed  factor    224.9618      1.20e+02  5.00e+02  kxp  1  0  1
kpkp223  fixed  factor    233.6797      1.20e+02  5.00e+02  kxp  1  0  1
kpkp224  fixed  factor    232.3029      1.20e+02  5.00e+02  kxp  1  0  1
kpkp225  fixed  factor    221.1969      1.20e+02  5.00e+02  kxp  1  0  1
kpkp226  fixed  factor    231.9237      1.20e+02  5.00e+02  kxp  1  0  1
kpkp227  fixed  factor    250.3901      1.20e+02  5.00e+02  kxp  1  0  1
kpkp228  fixed  factor    232.7859      1.20e+02  5.00e+02  kxp  1  0  1
kpkp229  fixed  factor    225.6159      1.20e+02  5.00e+02  kxp  1  0  1
kpkp230  fixed  factor    253.5599      1.20e+02  5.00e+02  kxp  1  0  1
kpkp231  fixed  factor    227.4534      1.20e+02  5.00e+02  kxp  1  0  1
kpkp232  fixed  factor    223.5847      1.20e+02  5.00e+02  kxp  1  0  1
kpkp233  fixed  factor    215.0521      1.20e+02  5.00e+02  kxp  1  0  1
kpkp234  fixed  factor    220.1303      1.20e+02  5.00e+02  kxp  1  0  1
kpkp235  fixed  factor    211.1001      1.20e+02  5.00e+02  kxp  1  0  1
kpkp236  fixed  factor    242.9496      1.20e+02  5.00e+02  kxp  1  0  1
kpkp237  fixed  factor    243.1227      1.20e+02  5.00e+02  kxp  1  0  1
kpkp238  fixed  factor    229.8329      1.20e+02  5.00e+02  kxp  1  0  1
kpkp239  fixed  factor    232.6444      1.20e+02  5.00e+02  kxp  1  0  1
kpkp240  fixed  factor    226.9985      1.20e+02  5.00e+02  kxp  1  0  1
kpkp241  fixed  factor    212.5878      1.20e+02  5.00e+02  kxp  1  0  1
kpkp242  fixed  factor    255.8288      1.20e+02  5.00e+02  kxp  1  0  1
kpkp243  fixed  factor    230.6515      1.20e+02  5.00e+02  kxp  1  0  1
kpkp244  fixed  factor    231.1809      1.20e+02  5.00e+02  kxp  1  0  1
kpkp245  fixed  factor    233.6548      1.20e+02  5.00e+02  kxp  1  0  1
kpkp246  fixed  factor    231.1896      1.20e+02  5.00e+02  kxp  1  0  1
kpkp247  fixed  factor    226.1239      1.20e+02  5.00e+02  kxp  1  0  1
kpkp248  fixed  factor    228.7155      1.20e+02  5.00e+02  kxp  1  0  1
kpkp249  fixed  factor    216.8618      1.20e+02  5.00e+02  kxp  1  0  1
kpkp250  fixed  factor    216.4448      1.20e+02  5.00e+02  kxp  1  0  1
kpkp251  fixed  factor    227.3941      1.20e+02  5.00e+02  kxp  1  0  1
kpkp252  fixed  factor    227.4785      1.20e+02  5.00e+02  kxp  1  0  1
kpkp253  fixed  factor    237.3695      1.20e+02  5.00e+02  kxp  1  0  1
kpkp254  fixed  factor    234.7393      1.20e+02  5.00e+02  kxp  1  0  1
kpkp255  fixed  factor    248.2222      1.20e+02  5.00e+02  kxp  1  0  1
kpkp256  fixed  factor    218.7707      1.20e+02  5.00e+02  kxp  1  0  1
kpkp257  fixed  factor    220.3147      1.20e+02  5.00e+02  kxp  1  0  1
kpkp258  fixed  factor    217.9635      1.20e+02  5.00e+02  kxp  1  0  1
kpkp259  fixed  factor    223.8020      1.20e+02  5.00e+02  kxp  1  0  1
kpkp260  fixed  factor    216.1269      1.20e+02  5.00e+02  kxp  1  0  1
kpkp261  fixed  factor    226.0038      1.20e+02  5.00e+02  kxp  1  0  1
kpkp262  fixed  factor    227.9278      1.20e+02  5.00e+02  kxp  1  0  1
kpkp263  fixed  factor    225.7167      1.20e+02  5.00e+02  kxp  1  0  1
kpkp264  fixed  factor    223.6545      1.20e+02  5.00e+02  kxp  1  0  1
kpkp265  fixed  factor    216.1799      1.20e+02  5.00e+02  kxp  1  0  1
kpkp266  fixed  factor    226.4099      1.20e+02  5.00e+02  kxp  1  0  1
kpkp267  fixed  factor    230.6669      1.20e+02  5.00e+02  kxp  1  0  1
kpkp268  fixed  factor    234.9249      1.20e+02  5.00e+02  kxp  1  0  1
kpkp269  fixed  factor    237.6628      1.20e+02  5.00e+02  kxp  1  0  1
kpkp270  fixed  factor    224.4963      1.20e+02  5.00e+02  kxp  1  0  1
kpkp271  fixed  factor    221.3100      1.20e+02  5.00e+02  kxp  1  0  1
kpkp272  fixed  factor    228.3615      1.20e+02  5.00e+02  kxp  1  0  1
kpkp273  fixed  factor    235.1105      1.20e+02  5.00e+02  kxp  1  0  1
kpkp274  fixed  factor    216.4869      1.20e+02  5.00e+02  kxp  1  0  1
kpkp275  fixed  factor    219.8048      1.20e+02  5.00e+02  kxp  1  0  1
kpkp276  fixed  factor    233.7021      1.20e+02  5.00e+02  kxp  1  0  1
kpkp277  fixed  factor    211.6251      1.20e+02  5.00e+02  kxp  1  0  1
kpkp278  fixed  factor    218.0783      1.20e+02  5.00e+02  kxp  1  0  1
kpkp279  fixed  factor    218.6432      1.20e+02  5.00e+02  kxp  1  0  1
kpkp280  fixed  factor    229.4938      1.20e+02  5.00e+02  kxp  1  0  1
kpkp281  fixed  factor    242.7437      1.20e+02  5.00e+02  kxp  1  0  1
kpkp282  fixed  factor    232.6494      1.20e+02  5.00e+02  kxp  1  0  1
kpkp283  fixed  factor    196.3144      1.20e+02  5.00e+02  kxp  1  0  1
kpkp284  fixed  factor    218.9836      1.20e+02  5.00e+02  kxp  1  0  1
kpkp285  fixed  factor    203.0278      1.20e+02  5.00e+02  kxp  1  0  1
kpkp286  fixed  factor    219.5725      1.20e+02  5.00e+02  kxp  1  0  1
kpkp287  fixed  factor    240.6286      1.20e+02  5.00e+02  kxp  1  0  1
kpkp288  fixed  factor    223.5280      1.20e+02  5.00e+02  kxp  1  0  1
kpkp289  fixed  factor    220.3838      1.20e+02  5.00e+02  kxp  1  0  1
kpkp290  fixed  factor    229.6494      1.20e+02  5.00e+02  kxp  1  0  1
kpkp291  fixed  factor    234.6087      1.20e+02  5.00e+02  kxp  1  0  1
kpkp292  fixed  factor    228.9506      1.20e+02  5.00e+02  kxp  1  0  1
kpkp293  fixed  factor    224.0648      1.20e+02  5.00e+02  kxp  1  0  1
kpkp294  fixed  factor    234.3512      1.20e+02  5.00e+02  kxp  1  0  1
kpkp295  fixed  factor    213.4348      1.20e+02  5.00e+02  kxp  1  0  1
kpkp296  fixed  factor    210.5052      1.20e+02  5.00e+02  kxp  1  0  1
kpkp297  fixed  factor    212.7859      1.20e+02  5.00e+02  kxp  1  0  1
kpkp298  fixed  factor    226.2218      1.20e+02  5.00e+02  kxp  1  0  1
kpkp299  fixed  factor    231.3603      1.20e+02  5.00e+02  kxp  1  0  1
kpkp300  fixed  factor    248.5212      1.20e+02  5.00e+02  kxp  1  0  1
kpkp301  fixed  factor    221.4932      1.20e+02  5.00e+02  kxp  1  0  1
kpkp302  fixed  factor    208.9602      1.20e+02  5.00e+02  kxp  1  0  1
kpkp303  fixed  factor    204.0235      1.20e+02  5.00e+02  kxp  1  0  1
kpkp304  fixed  factor    218.5521      1.20e+02  5.00e+02  kxp  1  0  1
kpkp305  fixed  factor    223.0350      1.20e+02  5.00e+02  kxp  1  0  1
kpkp306  fixed  factor    223.0382      1.20e+02  5.00e+02  kxp  1  0  1
kpkp307  fixed  factor    223.5564      1.20e+02  5.00e+02  kxp  1  0  1
kpkp308  fixed  factor    210.2135      1.20e+02  5.00e+02  kxp  1  0  1
kpkp309  fixed  factor    223.0335      1.20e+02  5.00e+02  kxp  1  0  1
kpkp310  fixed  factor    233.7011      1.20e+02  5.00e+02  kxp  1  0  1
kpkp311  fixed  factor    240.9452      1.20e+02  5.00e+02  kxp  1  0  1
kpkp312  fixed  factor    236.4829      1.20e+02  5.00e+02  kxp  1  0  1
kpkp313  fixed  factor    215.1692      1.20e+02  5.00e+02  kxp  1  0  1
kpkp314  fixed  factor    209.7058      1.20e+02  5.00e+02  kxp  1  0  1
kpkp315  fixed  factor    221.7281      1.20e+02  5.00e+02  kxp  1  0  1
kpkp316  fixed  factor    212.6766      1.20e+02  5.00e+02  kxp  1  0  1
kpkp317  fixed  factor    228.0392      1.20e+02  5.00e+02  kxp  1  0  1
kpkp318  fixed  factor    220.4329      1.20e+02  5.00e+02  kxp  1  0  1
kpkp319  fixed  factor    212.7323      1.20e+02  5.00e+02  kxp  1  0  1
kpkp320  fixed  factor    200.9119      1.20e+02  5.00e+02  kxp  1  0  1
kpkp321  fixed  factor    196.6045      1.20e+02  5.00e+02  kxp  1  0  1
kpkp322  fixed  factor    218.1747      1.20e+02  5.00e+02  kxp  1  0  1
kpkp323  fixed  factor    221.6818      1.20e+02  5.00e+02  kxp  1  0  1
kpkp324  fixed  factor    228.4496      1.20e+02  5.00e+02  kxp  1  0  1
kpkp325  fixed  factor    221.9125      1.20e+02  5.00e+02  kxp  1  0  1
kpkp326  fixed  factor    233.7747      1.20e+02  5.00e+02  kxp  1  0  1
kpkp327  fixed  factor    216.0788      1.20e+02  5.00e+02  kxp  1  0  1
kzkz1  fixed  factor    6.403942      6.00e+00  5.00e+01  kzp  1  0  1
kzkz2  fixed  factor    7.262059      6.00e+00  5.00e+01  kzp  1  0  1
kzkz3  fixed  factor    7.544535      6.00e+00  5.00e+01  kzp  1  0  1
kzkz4  fixed  factor    6.949707      6.00e+00  5.00e+01  kzp  1  0  1
kzkz5  fixed  factor    7.148439      6.00e+00  5.00e+01  kzp  1  0  1
kzkz6  fixed  factor    7.099836      6.00e+00  5.00e+01  kzp  1  0  1
kzkz7  fixed  factor    7.032177      6.00e+00  5.00e+01  kzp  1  0  1
kzkz8  fixed  factor    6.955526      6.00e+00  5.00e+01  kzp  1  0  1
kzkz9  fixed  factor    6.942272      6.00e+00  5.00e+01  kzp  1  0  1
kzkz10  fixed  factor    6.902681      6.00e+00  5.00e+01  kzp  1  0  1
kzkz11  fixed  factor    7.030191      6.00e+00  5.00e+01  kzp  1  0  1
kzkz12  fixed  factor    6.909244      6.00e+00  5.00e+01  kzp  1  0  1
kzkz13  fixed  factor    6.923199      6.00e+00  5.00e+01  kzp  1  0  1
kzkz14  fixed  factor    7.622437      6.00e+00  5.00e+01  kzp  1  0  1
kzkz15  fixed  factor    7.041070      6.00e+00  5.00e+01  kzp  1  0  1
kzkz16  fixed  factor    6.936180      6.00e+00  5.00e+01  kzp  1  0  1
kzkz17  fixed  factor    7.121644      6.00e+00  5.00e+01  kzp  1  0  1
kzkz18  fixed  factor    7.132632      6.00e+00  5.00e+01  kzp  1  0  1
kzkz19  fixed  factor    7.104162      6.00e+00  5.00e+01  kzp  1  0  1
kzkz20  fixed  factor    7.163777      6.00e+00  5.00e+01  kzp  1  0  1