pcf
* control data
restart estimation
     679     100       5     0      12
4  2  single  point  1  0  0
2.000000e+001  -3.000000e+000  3.000000e-001  1.000000e-002 -7 999 lamforgive
1.000000e+001  1.000000e+001  1.000000e-003
1.000000e-001 1 noaui noboundscale
-1 1.000000e-002  3  3  1.000000e-002  3
0  0  0   PARSAVEITN
* singular value decomposition
  1
  968  5.000000e-007
  1
* parameter groups
Kxp     relative   1.000000e-002  0.000000e+000  switch  2.000000e+000  parabolic 1.0e-5 0.5 smaller
Kzp     relative   1.000000e-002  0.000000e+000  switch  2.000000e+000  parabolic 1.0e-5 0.5 smaller
Kx     relative   1.000000e-002  0.000000e+000  switch  2.000000e+000  parabolic 1.0e-5 0.5 smaller
Kz     relative   1.000000e-002  0.000000e+000  switch  2.000000e+000  parabolic 1.0e-5 0.5 smaller
Rch relative   1.000000e-002  0.000000e+000  switch  2.000000e+000  parabolic 1.0e-5 0.5 smaller
* parameter data
rch1 log factor 2.455e-03 0.0005 0.01 Rch 1 0 1
Kx1 log factor 20.0 1.0 50.0 Kx 1 0 1
Kx2 log factor 25.0 1.0 50.0 Kx 1 0 1
Kx21 log factor 25.0 1.0 50.0 Kx 1 0 1
Kx3 log factor 25.0 1.0 50.0 Kx 1 0 1
Kx4 log factor 1.0 0.1 10.0 Kx 1 0 1
Kx5 log factor 33.0 1.0 50.0 Kx 1 0 1
Kx6 log factor 15.0 1.0 50.0 Kx 1 0 1
Kx8 log factor 1.0 0.1 10.0 Kx 1 0 1
Kx81 log factor 1.0 0.1 10.0 Kx 1 0 1
Kx13 log factor 200.0 40.0 250.0 Kx 1 0 1
Kx14 log factor 35.0 20.0 80.0 Kx 1 0 1
Kx15 log factor 35.0 20.0 80.0 Kx 1 0 1
Kz1 log factor 2.0 0.10 5.0 Kz 1 0 1
Kz2 log factor 2.50 0.10 5.0  Kz 1 0 1
Kz21 log factor 2.50 0.10 5.0  Kz 1 0 1
Kz3 log factor 2.50 0.10 5.0  Kz 1 0 1
Kz4 log factor 0.10 0.01 1.0 Kz 1 0 1
Kz5 log factor 33.0 1.0 50.0 Kz 1 0 1
Kz6 log factor 15.0 1.0 50.0 Kz 1 0 1
Kz8 log factor 1.0 0.1 10.0 Kz 1 0 1
Kz81 log factor 1.0 0.1 10.0 Kz 1 0 1
Kz13 log factor 115 30.0 130.0 Kz 1 0 1
Kz14 log factor 3.50 2.0 8.0 Kz 1 0 1
Kz15 log factor 3.50 2.0 8.0 Kz 1 0 1
KpKp1  log  factor  1.70E+02  1.50E+02  5.00E+02  Kxp  1  0  1
KpKp2  log  factor  1.70E+02  1.50E+02  5.00E+02  Kxp  1  0  1
KpKp3  log  factor  1.70E+02  1.50E+02  5.00E+02  Kxp  1  0  1
KpKp4  log  factor  1.70E+02  1.50E+02  5.00E+02  Kxp  1  0  1
KpKp5  log  factor  1.70E+02  1.50E+02  5.00E+02  Kxp  1  0  1
KpKp6  log  factor  1.70E+02  1.50E+02  5.00E+02  Kxp  1  0  1
KpKp7  log  factor  1.70E+02  1.50E+02  5.00E+02  Kxp  1  0  1
KpKp8  log  factor  1.70E+02  1.50E+02  5.00E+02  Kxp  1  0  1
KpKp9  log  factor  1.70E+02  1.50E+02  5.00E+02  Kxp  1  0  1
KpKp10  log  factor  1.70E+02  1.50E+02  5.00E+02  Kxp  1  0  1
KpKp11  log  factor  1.70E+02  1.50E+02  5.00E+02  Kxp  1  0  1
KpKp12  log  factor  1.70E+02  1.50E+02  5.00E+02  Kxp  1  0  1
KpKp13  log  factor  1.70E+02  1.50E+02  5.00E+02  Kxp  1  0  1
KpKp14  log  factor  1.70E+02  1.50E+02  5.00E+02  Kxp  1  0  1
KpKp15  log  factor  1.70E+02  1.50E+02  5.00E+02  Kxp  1  0  1
KpKp16  log  factor  1.70E+02  1.50E+02  5.00E+02  Kxp  1  0  1
KpKp17  log  factor  1.70E+02  1.50E+02  5.00E+02  Kxp  1  0  1
KpKp18  log  factor  1.70E+02  1.50E+02  5.00E+02  Kxp  1  0  1
KpKp19  log  factor  1.70E+02  1.50E+02  5.00E+02  Kxp  1  0  1
KpKp20  log  factor  1.70E+02  1.50E+02  5.00E+02  Kxp  1  0  1
KpKp21  log  factor  1.70E+02  1.50E+02  5.00E+02  Kxp  1  0  1
KpKp22  log  factor  1.70E+02  1.50E+02  5.00E+02  Kxp  1  0  1
KpKp23  log  factor  1.70E+02  1.50E+02  5.00E+02  Kxp  1  0  1
KpKp24  log  factor  1.70E+02  1.50E+02  5.00E+02  Kxp  1  0  1
KpKp25  log  factor  1.70E+02  1.50E+02  5.00E+02  Kxp  1  0  1
KpKp26  log  factor  1.70E+02  1.50E+02  5.00E+02  Kxp  1  0  1
KpKp27  log  factor  1.70E+02  1.50E+02  5.00E+02  Kxp  1  0  1
KpKp28  log  factor  1.70E+02  1.50E+02  5.00E+02  Kxp  1  0  1
KpKp29  log  factor  1.70E+02  1.50E+02  5.00E+02  Kxp  1  0  1
KpKp30  log  factor  1.70E+02  1.50E+02  5.00E+02  Kxp  1  0  1
KpKp31  log  factor  1.70E+02  1.50E+02  5.00E+02  Kxp  1  0  1
KpKp32  log  factor  1.70E+02  1.50E+02  5.00E+02  Kxp  1  0  1
KpKp33  log  factor  1.70E+02  1.50E+02  5.00E+02  Kxp  1  0  1
KpKp34  log  factor  1.70E+02  1.50E+02  5.00E+02  Kxp  1  0  1
KpKp35  log  factor  1.70E+02  1.50E+02  5.00E+02  Kxp  1  0  1
KpKp36  log  factor  1.70E+02  1.50E+02  5.00E+02  Kxp  1  0  1
KpKp37  log  factor  1.70E+02  1.50E+02  5.00E+02  Kxp  1  0  1
KpKp38  log  factor  1.70E+02  1.50E+02  5.00E+02  Kxp  1  0  1
KpKp39  log  factor  1.70E+02  1.50E+02  5.00E+02  Kxp  1  0  1
KpKp40  log  factor  1.70E+02  1.50E+02  5.00E+02  Kxp  1  0  1
KpKp41  log  factor  1.70E+02  1.50E+02  5.00E+02  Kxp  1  0  1
KpKp42  log  factor  1.70E+02  1.50E+02  5.00E+02  Kxp  1  0  1
KpKp43  log  factor  1.70E+02  1.50E+02  5.00E+02  Kxp  1  0  1
KpKp44  log  factor  1.70E+02  1.50E+02  5.00E+02  Kxp  1  0  1
KpKp45  log  factor  1.70E+02  1.50E+02  5.00E+02  Kxp  1  0  1
KpKp46  log  factor  1.70E+02  1.50E+02  5.00E+02  Kxp  1  0  1
KpKp47  log  factor  1.70E+02  1.50E+02  5.00E+02  Kxp  1  0  1
KpKp48  log  factor  1.70E+02  1.50E+02  5.00E+02  Kxp  1  0  1
KpKp49  log  factor  1.70E+02  1.50E+02  5.00E+02  Kxp  1  0  1
KpKp50  log  factor  1.70E+02  1.50E+02  5.00E+02  Kxp  1  0  1
KpKp51  log  factor  1.70E+02  1.50E+02  5.00E+02  Kxp  1  0  1
KpKp52  log  factor  1.70E+02  1.50E+02  5.00E+02  Kxp  1  0  1
KpKp53  log  factor  1.70E+02  1.50E+02  5.00E+02  Kxp  1  0  1
KpKp54  log  factor  1.70E+02  1.50E+02  5.00E+02  Kxp  1  0  1
KpKp55  log  factor  1.70E+02  1.50E+02  5.00E+02  Kxp  1  0  1
KpKp56  log  factor  1.70E+02  1.50E+02  5.00E+02  Kxp  1  0  1
KpKp57  log  factor  1.70E+02  1.50E+02  5.00E+02  Kxp  1  0  1
KpKp58  log  factor  1.70E+02  1.50E+02  5.00E+02  Kxp  1  0  1
KpKp59  log  factor  1.70E+02  1.50E+02  5.00E+02  Kxp  1  0  1
KpKp60  log  factor  1.70E+02  1.50E+02  5.00E+02  Kxp  1  0  1
KpKp61  log  factor  1.70E+02  1.50E+02  5.00E+02  Kxp  1  0  1
KpKp62  log  factor  1.70E+02  1.50E+02  5.00E+02  Kxp  1  0  1
KpKp63  log  factor  1.70E+02  1.50E+02  5.00E+02  Kxp  1  0  1
KpKp64  log  factor  1.70E+02  1.50E+02  5.00E+02  Kxp  1  0  1
KpKp65  log  factor  1.70E+02  1.50E+02  5.00E+02  Kxp  1  0  1
KpKp66  log  factor  1.70E+02  1.50E+02  5.00E+02  Kxp  1  0  1
KpKp67  log  factor  1.70E+02  1.50E+02  5.00E+02  Kxp  1  0  1
KpKp68  log  factor  1.70E+02  1.50E+02  5.00E+02  Kxp  1  0  1
KpKp69  log  factor  1.70E+02  1.50E+02  5.00E+02  Kxp  1  0  1
KpKp70  log  factor  1.70E+02  1.50E+02  5.00E+02  Kxp  1  0  1
KpKp71  log  factor  1.70E+02  1.50E+02  5.00E+02  Kxp  1  0  1
KpKp72  log  factor  1.70E+02  1.50E+02  5.00E+02  Kxp  1  0  1
KpKp73  log  factor  1.70E+02  1.50E+02  5.00E+02  Kxp  1  0  1
KpKp74  log  factor  1.70E+02  1.50E+02  5.00E+02  Kxp  1  0  1
KpKp75  log  factor  1.70E+02  1.50E+02  5.00E+02  Kxp  1  0  1
KpKp76  log  factor  1.70E+02  1.50E+02  5.00E+02  Kxp  1  0  1
KpKp77  log  factor  1.70E+02  1.50E+02  5.00E+02  Kxp  1  0  1
KpKp78  log  factor  1.70E+02  1.50E+02  5.00E+02  Kxp  1  0  1
KpKp79  log  factor  1.70E+02  1.50E+02  5.00E+02  Kxp  1  0  1
KpKp80  log  factor  1.70E+02  1.50E+02  5.00E+02  Kxp  1  0  1
KpKp81  log  factor  1.70E+02  1.50E+02  5.00E+02  Kxp  1  0  1
KpKp82  log  factor  1.70E+02  1.50E+02  5.00E+02  Kxp  1  0  1
KpKp83  log  factor  1.70E+02  1.50E+02  5.00E+02  Kxp  1  0  1
KpKp84  log  factor  1.70E+02  1.50E+02  5.00E+02  Kxp  1  0  1
KpKp85  log  factor  1.70E+02  1.50E+02  5.00E+02  Kxp  1  0  1
KpKp86  log  factor  1.70E+02  1.50E+02  5.00E+02  Kxp  1  0  1
KpKp87  log  factor  1.70E+02  1.50E+02  5.00E+02  Kxp  1  0  1
KpKp88  log  factor  1.70E+02  1.50E+02  5.00E+02  Kxp  1  0  1
KpKp89  log  factor  1.70E+02  1.50E+02  5.00E+02  Kxp  1  0  1
KpKp90  log  factor  1.70E+02  1.50E+02  5.00E+02  Kxp  1  0  1
KpKp91  log  factor  1.70E+02  1.50E+02  5.00E+02  Kxp  1  0  1
KpKp92  log  factor  1.70E+02  1.50E+02  5.00E+02  Kxp  1  0  1
KpKp93  log  factor  1.70E+02  1.50E+02  5.00E+02  Kxp  1  0  1
KpKp94  log  factor  1.70E+02  1.50E+02  5.00E+02  Kxp  1  0  1
KpKp95  log  factor  1.70E+02  1.50E+02  5.00E+02  Kxp  1  0  1
KpKp96  log  factor  1.70E+02  1.50E+02  5.00E+02  Kxp  1  0  1
KpKp97  log  factor  1.70E+02  1.50E+02  5.00E+02  Kxp  1  0  1
KpKp98  log  factor  1.70E+02  1.50E+02  5.00E+02  Kxp  1  0  1
KpKp99  log  factor  1.70E+02  1.50E+02  5.00E+02  Kxp  1  0  1
KpKp100  log  factor  1.70E+02  1.50E+02  5.00E+02  Kxp  1  0  1
KpKp101  log  factor  1.70E+02  1.50E+02  5.00E+02  Kxp  1  0  1
KpKp102  log  factor  1.70E+02  1.50E+02  5.00E+02  Kxp  1  0  1
KpKp103  log  factor  1.70E+02  1.50E+02  5.00E+02  Kxp  1  0  1
KpKp104  log  factor  1.70E+02  1.50E+02  5.00E+02  Kxp  1  0  1
KpKp105  log  factor  1.70E+02  1.50E+02  5.00E+02  Kxp  1  0  1
KpKp106  log  factor  1.70E+02  1.50E+02  5.00E+02  Kxp  1  0  1
KpKp107  log  factor  1.70E+02  1.50E+02  5.00E+02  Kxp  1  0  1
KpKp108  log  factor  1.70E+02  1.50E+02  5.00E+02  Kxp  1  0  1
KpKp109  log  factor  1.70E+02  1.50E+02  5.00E+02  Kxp  1  0  1
KpKp110  log  factor  1.70E+02  1.50E+02  5.00E+02  Kxp  1  0  1
KpKp111  log  factor  1.70E+02  1.50E+02  5.00E+02  Kxp  1  0  1
KpKp112  log  factor  1.70E+02  1.50E+02  5.00E+02  Kxp  1  0  1
KpKp113  log  factor  1.70E+02  1.50E+02  5.00E+02  Kxp  1  0  1
KpKp114  log  factor  1.70E+02  1.50E+02  5.00E+02  Kxp  1  0  1
KpKp115  log  factor  1.70E+02  1.50E+02  5.00E+02  Kxp  1  0  1
KpKp116  log  factor  1.70E+02  1.50E+02  5.00E+02  Kxp  1  0  1
KpKp117  log  factor  1.70E+02  1.50E+02  5.00E+02  Kxp  1  0  1
KpKp118  log  factor  1.70E+02  1.50E+02  5.00E+02  Kxp  1  0  1
KpKp119  log  factor  1.70E+02  1.50E+02  5.00E+02  Kxp  1  0  1
KpKp120  log  factor  1.70E+02  1.50E+02  5.00E+02  Kxp  1  0  1
KpKp121  log  factor  1.70E+02  1.50E+02  5.00E+02  Kxp  1  0  1
KpKp122  log  factor  1.70E+02  1.50E+02  5.00E+02  Kxp  1  0  1
KpKp123  log  factor  1.70E+02  1.50E+02  5.00E+02  Kxp  1  0  1
KpKp124  log  factor  1.70E+02  1.50E+02  5.00E+02  Kxp  1  0  1
KpKp125  log  factor  1.70E+02  1.50E+02  5.00E+02  Kxp  1  0  1
KpKp126  log  factor  1.70E+02  1.50E+02  5.00E+02  Kxp  1  0  1
KpKp127  log  factor  1.70E+02  1.50E+02  5.00E+02  Kxp  1  0  1
KpKp128  log  factor  1.70E+02  1.50E+02  5.00E+02  Kxp  1  0  1
KpKp129  log  factor  1.70E+02  1.50E+02  5.00E+02  Kxp  1  0  1
KpKp130  log  factor  1.70E+02  1.50E+02  5.00E+02  Kxp  1  0  1
KpKp131  log  factor  1.70E+02  1.50E+02  5.00E+02  Kxp  1  0  1
KpKp132  log  factor  1.70E+02  1.50E+02  5.00E+02  Kxp  1  0  1
KpKp133  log  factor  1.70E+02  1.50E+02  5.00E+02  Kxp  1  0  1
KpKp134  log  factor  1.70E+02  1.50E+02  5.00E+02  Kxp  1  0  1
KpKp135  log  factor  1.70E+02  1.50E+02  5.00E+02  Kxp  1  0  1
KpKp136  log  factor  1.70E+02  1.50E+02  5.00E+02  Kxp  1  0  1
KpKp137  log  factor  1.70E+02  1.50E+02  5.00E+02  Kxp  1  0  1
KpKp138  log  factor  1.70E+02  1.50E+02  5.00E+02  Kxp  1  0  1
KpKp139  log  factor  1.70E+02  1.50E+02  5.00E+02  Kxp  1  0  1
KpKp140  log  factor  1.70E+02  1.50E+02  5.00E+02  Kxp  1  0  1
KpKp141  log  factor  1.70E+02  1.50E+02  5.00E+02  Kxp  1  0  1
KpKp142  log  factor  1.70E+02  1.50E+02  5.00E+02  Kxp  1  0  1
KpKp143  log  factor  1.70E+02  1.50E+02  5.00E+02  Kxp  1  0  1
KpKp144  log  factor  1.70E+02  1.50E+02  5.00E+02  Kxp  1  0  1
KpKp145  log  factor  1.70E+02  1.50E+02  5.00E+02  Kxp  1  0  1
KpKp146  log  factor  1.70E+02  1.50E+02  5.00E+02  Kxp  1  0  1
KpKp147  log  factor  1.70E+02  1.50E+02  5.00E+02  Kxp  1  0  1
KpKp148  log  factor  1.70E+02  1.50E+02  5.00E+02  Kxp  1  0  1
KpKp149  log  factor  1.70E+02  1.50E+02  5.00E+02  Kxp  1  0  1
KpKp150  log  factor  1.70E+02  1.50E+02  5.00E+02  Kxp  1  0  1
KpKp151  log  factor  1.70E+02  1.50E+02  5.00E+02  Kxp  1  0  1
KpKp152  log  factor  1.70E+02  1.50E+02  5.00E+02  Kxp  1  0  1
KpKp153  log  factor  1.70E+02  1.50E+02  5.00E+02  Kxp  1  0  1
KpKp154  log  factor  1.70E+02  1.50E+02  5.00E+02  Kxp  1  0  1
KpKp155  log  factor  1.70E+02  1.50E+02  5.00E+02  Kxp  1  0  1
KpKp156  log  factor  1.70E+02  1.50E+02  5.00E+02  Kxp  1  0  1
KpKp157  log  factor  1.70E+02  1.50E+02  5.00E+02  Kxp  1  0  1
KpKp158  log  factor  1.70E+02  1.50E+02  5.00E+02  Kxp  1  0  1
KpKp159  log  factor  1.70E+02  1.50E+02  5.00E+02  Kxp  1  0  1
KpKp160  log  factor  1.70E+02  1.50E+02  5.00E+02  Kxp  1  0  1
KpKp161  log  factor  1.70E+02  1.50E+02  5.00E+02  Kxp  1  0  1
KpKp162  log  factor  1.70E+02  1.50E+02  5.00E+02  Kxp  1  0  1
KpKp163  log  factor  1.70E+02  1.50E+02  5.00E+02  Kxp  1  0  1
KpKp164  log  factor  1.70E+02  1.50E+02  5.00E+02  Kxp  1  0  1
KpKp165  log  factor  1.70E+02  1.50E+02  5.00E+02  Kxp  1  0  1
KpKp166  log  factor  1.70E+02  1.50E+02  5.00E+02  Kxp  1  0  1
KpKp167  log  factor  1.70E+02  1.50E+02  5.00E+02  Kxp  1  0  1
KpKp168  log  factor  1.70E+02  1.50E+02  5.00E+02  Kxp  1  0  1
KpKp169  log  factor  1.70E+02  1.50E+02  5.00E+02  Kxp  1  0  1
KpKp170  log  factor  1.70E+02  1.50E+02  5.00E+02  Kxp  1  0  1
KpKp171  log  factor  1.70E+02  1.50E+02  5.00E+02  Kxp  1  0  1
KpKp172  log  factor  1.70E+02  1.50E+02  5.00E+02  Kxp  1  0  1
KpKp173  log  factor  1.70E+02  1.50E+02  5.00E+02  Kxp  1  0  1
KpKp174  log  factor  1.70E+02  1.50E+02  5.00E+02  Kxp  1  0  1
KpKp175  log  factor  1.70E+02  1.50E+02  5.00E+02  Kxp  1  0  1
KpKp176  log  factor  1.70E+02  1.50E+02  5.00E+02  Kxp  1  0  1
KpKp177  log  factor  1.70E+02  1.50E+02  5.00E+02  Kxp  1  0  1
KpKp178  log  factor  1.70E+02  1.50E+02  5.00E+02  Kxp  1  0  1
KpKp179  log  factor  1.70E+02  1.50E+02  5.00E+02  Kxp  1  0  1
KpKp180  log  factor  1.70E+02  1.50E+02  5.00E+02  Kxp  1  0  1
KpKp181  log  factor  1.70E+02  1.50E+02  5.00E+02  Kxp  1  0  1
KpKp182  log  factor  1.70E+02  1.50E+02  5.00E+02  Kxp  1  0  1
KpKp183  log  factor  1.70E+02  1.50E+02  5.00E+02  Kxp  1  0  1
KpKp184  log  factor  1.70E+02  1.50E+02  5.00E+02  Kxp  1  0  1
KpKp185  log  factor  1.70E+02  1.50E+02  5.00E+02  Kxp  1  0  1
KpKp186  log  factor  1.70E+02  1.50E+02  5.00E+02  Kxp  1  0  1
KpKp187  log  factor  1.70E+02  1.50E+02  5.00E+02  Kxp  1  0  1
KpKp188  log  factor  1.70E+02  1.50E+02  5.00E+02  Kxp  1  0  1
KpKp189  log  factor  1.70E+02  1.50E+02  5.00E+02  Kxp  1  0  1
KpKp190  log  factor  1.70E+02  1.50E+02  5.00E+02  Kxp  1  0  1
KpKp191  log  factor  1.70E+02  1.50E+02  5.00E+02  Kxp  1  0  1
KpKp192  log  factor  1.70E+02  1.50E+02  5.00E+02  Kxp  1  0  1
KpKp193  log  factor  1.70E+02  1.50E+02  5.00E+02  Kxp  1  0  1
KpKp194  log  factor  1.70E+02  1.50E+02  5.00E+02  Kxp  1  0  1
KpKp195  log  factor  1.70E+02  1.50E+02  5.00E+02  Kxp  1  0  1
KpKp196  log  factor  1.70E+02  1.50E+02  5.00E+02  Kxp  1  0  1
KpKp197  log  factor  1.70E+02  1.50E+02  5.00E+02  Kxp  1  0  1
KpKp198  log  factor  1.70E+02  1.50E+02  5.00E+02  Kxp  1  0  1
KpKp199  log  factor  1.70E+02  1.50E+02  5.00E+02  Kxp  1  0  1
KpKp200  log  factor  1.70E+02  1.50E+02  5.00E+02  Kxp  1  0  1
KpKp201  log  factor  1.70E+02  1.50E+02  5.00E+02  Kxp  1  0  1
KpKp202  log  factor  1.70E+02  1.50E+02  5.00E+02  Kxp  1  0  1
KpKp203  log  factor  1.70E+02  1.50E+02  5.00E+02  Kxp  1  0  1
KpKp204  log  factor  1.70E+02  1.50E+02  5.00E+02  Kxp  1  0  1
KpKp205  log  factor  1.70E+02  1.50E+02  5.00E+02  Kxp  1  0  1
KpKp206  log  factor  1.70E+02  1.50E+02  5.00E+02  Kxp  1  0  1
KpKp207  log  factor  1.70E+02  1.50E+02  5.00E+02  Kxp  1  0  1
KpKp208  log  factor  1.70E+02  1.50E+02  5.00E+02  Kxp  1  0  1
KpKp209  log  factor  1.70E+02  1.50E+02  5.00E+02  Kxp  1  0  1
KpKp210  log  factor  1.70E+02  1.50E+02  5.00E+02  Kxp  1  0  1
KpKp211  log  factor  1.70E+02  1.50E+02  5.00E+02  Kxp  1  0  1
KpKp212  log  factor  1.70E+02  1.50E+02  5.00E+02  Kxp  1  0  1
KpKp213  log  factor  1.70E+02  1.50E+02  5.00E+02  Kxp  1  0  1
KpKp214  log  factor  1.70E+02  1.50E+02  5.00E+02  Kxp  1  0  1
KpKp215  log  factor  1.70E+02  1.50E+02  5.00E+02  Kxp  1  0  1
KpKp216  log  factor  1.70E+02  1.50E+02  5.00E+02  Kxp  1  0  1
KpKp217  log  factor  1.70E+02  1.50E+02  5.00E+02  Kxp  1  0  1
KpKp218  log  factor  1.70E+02  1.50E+02  5.00E+02  Kxp  1  0  1
KpKp219  log  factor  1.70E+02  1.50E+02  5.00E+02  Kxp  1  0  1
KpKp220  log  factor  1.70E+02  1.50E+02  5.00E+02  Kxp  1  0  1
KpKp221  log  factor  1.70E+02  1.50E+02  5.00E+02  Kxp  1  0  1
KpKp222  log  factor  1.70E+02  1.50E+02  5.00E+02  Kxp  1  0  1
KpKp223  log  factor  1.70E+02  1.50E+02  5.00E+02  Kxp  1  0  1
KpKp224  log  factor  1.70E+02  1.50E+02  5.00E+02  Kxp  1  0  1
KpKp225  log  factor  1.70E+02  1.50E+02  5.00E+02  Kxp  1  0  1
KpKp226  log  factor  1.70E+02  1.50E+02  5.00E+02  Kxp  1  0  1
KpKp227  log  factor  1.70E+02  1.50E+02  5.00E+02  Kxp  1  0  1
KpKp228  log  factor  1.70E+02  1.50E+02  5.00E+02  Kxp  1  0  1
KpKp229  log  factor  1.70E+02  1.50E+02  5.00E+02  Kxp  1  0  1
KpKp230  log  factor  1.70E+02  1.50E+02  5.00E+02  Kxp  1  0  1
KpKp231  log  factor  1.70E+02  1.50E+02  5.00E+02  Kxp  1  0  1
KpKp232  log  factor  1.70E+02  1.50E+02  5.00E+02  Kxp  1  0  1
KpKp233  log  factor  1.70E+02  1.50E+02  5.00E+02  Kxp  1  0  1
KpKp234  log  factor  1.70E+02  1.50E+02  5.00E+02  Kxp  1  0  1
KpKp235  log  factor  1.70E+02  1.50E+02  5.00E+02  Kxp  1  0  1
KpKp236  log  factor  1.70E+02  1.50E+02  5.00E+02  Kxp  1  0  1
KpKp237  log  factor  1.70E+02  1.50E+02  5.00E+02  Kxp  1  0  1
KpKp238  log  factor  1.70E+02  1.50E+02  5.00E+02  Kxp  1  0  1
KpKp239  log  factor  1.70E+02  1.50E+02  5.00E+02  Kxp  1  0  1
KpKp240  log  factor  1.70E+02  1.50E+02  5.00E+02  Kxp  1  0  1
KpKp241  log  factor  1.70E+02  1.50E+02  5.00E+02  Kxp  1  0  1
KpKp242  log  factor  1.70E+02  1.50E+02  5.00E+02  Kxp  1  0  1
KpKp243  log  factor  1.70E+02  1.50E+02  5.00E+02  Kxp  1  0  1
KpKp244  log  factor  1.70E+02  1.50E+02  5.00E+02  Kxp  1  0  1
KpKp245  log  factor  1.70E+02  1.50E+02  5.00E+02  Kxp  1  0  1
KpKp246  log  factor  1.70E+02  1.50E+02  5.00E+02  Kxp  1  0  1
KpKp247  log  factor  1.70E+02  1.50E+02  5.00E+02  Kxp  1  0  1
KpKp248  log  factor  1.70E+02  1.50E+02  5.00E+02  Kxp  1  0  1
KpKp249  log  factor  1.70E+02  1.50E+02  5.00E+02  Kxp  1  0  1
KpKp250  log  factor  1.70E+02  1.50E+02  5.00E+02  Kxp  1  0  1
KpKp251  log  factor  1.70E+02  1.50E+02  5.00E+02  Kxp  1  0  1
KpKp252  log  factor  1.70E+02  1.50E+02  5.00E+02  Kxp  1  0  1
KpKp253  log  factor  1.70E+02  1.50E+02  5.00E+02  Kxp  1  0  1
KpKp254  log  factor  1.70E+02  1.50E+02  5.00E+02  Kxp  1  0  1
KpKp255  log  factor  1.70E+02  1.50E+02  5.00E+02  Kxp  1  0  1
KpKp256  log  factor  1.70E+02  1.50E+02  5.00E+02  Kxp  1  0  1
KpKp257  log  factor  1.70E+02  1.50E+02  5.00E+02  Kxp  1  0  1
KpKp258  log  factor  1.70E+02  1.50E+02  5.00E+02  Kxp  1  0  1
KpKp259  log  factor  1.70E+02  1.50E+02  5.00E+02  Kxp  1  0  1
KpKp260  log  factor  1.70E+02  1.50E+02  5.00E+02  Kxp  1  0  1
KpKp261  log  factor  1.70E+02  1.50E+02  5.00E+02  Kxp  1  0  1
KpKp262  log  factor  1.70E+02  1.50E+02  5.00E+02  Kxp  1  0  1
KpKp263  log  factor  1.70E+02  1.50E+02  5.00E+02  Kxp  1  0  1
KpKp264  log  factor  1.70E+02  1.50E+02  5.00E+02  Kxp  1  0  1
KpKp265  log  factor  1.70E+02  1.50E+02  5.00E+02  Kxp  1  0  1
KpKp266  log  factor  1.70E+02  1.50E+02  5.00E+02  Kxp  1  0  1
KpKp267  log  factor  1.70E+02  1.50E+02  5.00E+02  Kxp  1  0  1
KpKp268  log  factor  1.70E+02  1.50E+02  5.00E+02  Kxp  1  0  1
KpKp269  log  factor  1.70E+02  1.50E+02  5.00E+02  Kxp  1  0  1
KpKp270  log  factor  1.70E+02  1.50E+02  5.00E+02  Kxp  1  0  1
KpKp271  log  factor  1.70E+02  1.50E+02  5.00E+02  Kxp  1  0  1
KpKp272  log  factor  1.70E+02  1.50E+02  5.00E+02  Kxp  1  0  1
KpKp273  log  factor  1.70E+02  1.50E+02  5.00E+02  Kxp  1  0  1
KpKp274  log  factor  1.70E+02  1.50E+02  5.00E+02  Kxp  1  0  1
KpKp275  log  factor  1.70E+02  1.50E+02  5.00E+02  Kxp  1  0  1
KpKp276  log  factor  1.70E+02  1.50E+02  5.00E+02  Kxp  1  0  1
KpKp277  log  factor  1.70E+02  1.50E+02  5.00E+02  Kxp  1  0  1
KpKp278  log  factor  1.70E+02  1.50E+02  5.00E+02  Kxp  1  0  1
KpKp279  log  factor  1.70E+02  1.50E+02  5.00E+02  Kxp  1  0  1
KpKp280  log  factor  1.70E+02  1.50E+02  5.00E+02  Kxp  1  0  1
KpKp281  log  factor  1.70E+02  1.50E+02  5.00E+02  Kxp  1  0  1
KpKp282  log  factor  1.70E+02  1.50E+02  5.00E+02  Kxp  1  0  1
KpKp283  log  factor  1.70E+02  1.50E+02  5.00E+02  Kxp  1  0  1
KpKp284  log  factor  1.70E+02  1.50E+02  5.00E+02  Kxp  1  0  1
KpKp285  log  factor  1.70E+02  1.50E+02  5.00E+02  Kxp  1  0  1
KpKp286  log  factor  1.70E+02  1.50E+02  5.00E+02  Kxp  1  0  1
KpKp287  log  factor  1.70E+02  1.50E+02  5.00E+02  Kxp  1  0  1
KpKp288  log  factor  1.70E+02  1.50E+02  5.00E+02  Kxp  1  0  1
KpKp289  log  factor  1.70E+02  1.50E+02  5.00E+02  Kxp  1  0  1
KpKp290  log  factor  1.70E+02  1.50E+02  5.00E+02  Kxp  1  0  1
KpKp291  log  factor  1.70E+02  1.50E+02  5.00E+02  Kxp  1  0  1
KpKp292  log  factor  1.70E+02  1.50E+02  5.00E+02  Kxp  1  0  1
KpKp293  log  factor  1.70E+02  1.50E+02  5.00E+02  Kxp  1  0  1
KpKp294  log  factor  1.70E+02  1.50E+02  5.00E+02  Kxp  1  0  1
KpKp295  log  factor  1.70E+02  1.50E+02  5.00E+02  Kxp  1  0  1
KpKp296  log  factor  1.70E+02  1.50E+02  5.00E+02  Kxp  1  0  1
KpKp297  log  factor  1.70E+02  1.50E+02  5.00E+02  Kxp  1  0  1
KpKp298  log  factor  1.70E+02  1.50E+02  5.00E+02  Kxp  1  0  1
KpKp299  log  factor  1.70E+02  1.50E+02  5.00E+02  Kxp  1  0  1
KpKp300  log  factor  1.70E+02  1.50E+02  5.00E+02  Kxp  1  0  1
KpKp301  log  factor  1.70E+02  1.50E+02  5.00E+02  Kxp  1  0  1
KpKp302  log  factor  1.70E+02  1.50E+02  5.00E+02  Kxp  1  0  1
KpKp303  log  factor  1.70E+02  1.50E+02  5.00E+02  Kxp  1  0  1
KpKp304  log  factor  1.70E+02  1.50E+02  5.00E+02  Kxp  1  0  1
KpKp305  log  factor  1.70E+02  1.50E+02  5.00E+02  Kxp  1  0  1
KpKp306  log  factor  1.70E+02  1.50E+02  5.00E+02  Kxp  1  0  1
KpKp307  log  factor  1.70E+02  1.50E+02  5.00E+02  Kxp  1  0  1
KpKp308  log  factor  1.70E+02  1.50E+02  5.00E+02  Kxp  1  0  1
KpKp309  log  factor  1.70E+02  1.50E+02  5.00E+02  Kxp  1  0  1
KpKp310  log  factor  1.70E+02  1.50E+02  5.00E+02  Kxp  1  0  1
KpKp311  log  factor  1.70E+02  1.50E+02  5.00E+02  Kxp  1  0  1
KpKp312  log  factor  1.70E+02  1.50E+02  5.00E+02  Kxp  1  0  1
KpKp313  log  factor  1.70E+02  1.50E+02  5.00E+02  Kxp  1  0  1
KpKp314  log  factor  1.70E+02  1.50E+02  5.00E+02  Kxp  1  0  1
KpKp315  log  factor  1.70E+02  1.50E+02  5.00E+02  Kxp  1  0  1
KpKp316  log  factor  1.70E+02  1.50E+02  5.00E+02  Kxp  1  0  1
KpKp317  log  factor  1.70E+02  1.50E+02  5.00E+02  Kxp  1  0  1
KpKp318  log  factor  1.70E+02  1.50E+02  5.00E+02  Kxp  1  0  1
KpKp319  log  factor  1.70E+02  1.50E+02  5.00E+02  Kxp  1  0  1
KpKp320  log  factor  1.70E+02  1.50E+02  5.00E+02  Kxp  1  0  1
KpKp321  log  factor  1.70E+02  1.50E+02  5.00E+02  Kxp  1  0  1
KpKp322  log  factor  1.70E+02  1.50E+02  5.00E+02  Kxp  1  0  1
KpKp323  log  factor  1.70E+02  1.50E+02  5.00E+02  Kxp  1  0  1
KpKp324  log  factor  1.70E+02  1.50E+02  5.00E+02  Kxp  1  0  1
KpKp325  log  factor  1.70E+02  1.50E+02  5.00E+02  Kxp  1  0  1
KpKp326  log  factor  1.70E+02  1.50E+02  5.00E+02  Kxp  1  0  1
KpKp327  log  factor  1.70E+02  1.50E+02  5.00E+02  Kxp  1  0  1
KzKz1  log  factor  75.0  50.0  3.19E+02  Kzp  1  0  1
KzKz2  log  factor  75.0  50.0  3.19E+02  Kzp  1  0  1
KzKz3  log  factor  75.0  50.0  3.19E+02  Kzp  1  0  1
KzKz4  log  factor  75.0  50.0  3.19E+02  Kzp  1  0  1
KzKz5  log  factor  75.0  50.0  3.19E+02  Kzp  1  0  1
KzKz6  log  factor  75.0  50.0  3.19E+02  Kzp  1  0  1
KzKz7  log  factor  75.0  50.0  3.19E+02  Kzp  1  0  1
KzKz8  log  factor  75.0  50.0  3.19E+02  Kzp  1  0  1
KzKz9  log  factor  75.0  50.0  3.19E+02  Kzp  1  0  1
KzKz10  log  factor  75.0  50.0  3.19E+02  Kzp  1  0  1
KzKz11  log  factor  75.0  50.0  3.19E+02  Kzp  1  0  1
KzKz12  log  factor  75.0  50.0  3.19E+02  Kzp  1  0  1
KzKz13  log  factor  75.0  50.0  3.19E+02  Kzp  1  0  1
KzKz14  log  factor  75.0  50.0  3.19E+02  Kzp  1  0  1
KzKz15  log  factor  75.0  50.0  3.19E+02  Kzp  1  0  1
KzKz16  log  factor  75.0  50.0  3.19E+02  Kzp  1  0  1
KzKz17  log  factor  75.0  50.0  3.19E+02  Kzp  1  0  1
KzKz18  log  factor  75.0  50.0  3.19E+02  Kzp  1  0  1
KzKz19  log  factor  75.0  50.0  3.19E+02  Kzp  1  0  1
KzKz20  log  factor  75.0  50.0  3.19E+02  Kzp  1  0  1
KzKz21  log  factor  75.0  50.0  3.19E+02  Kzp  1  0  1
KzKz22  log  factor  75.0  50.0  3.19E+02  Kzp  1  0  1
KzKz23  log  factor  75.0  50.0  3.19E+02  Kzp  1  0  1
KzKz24  log  factor  75.0  50.0  3.19E+02  Kzp  1  0  1
KzKz25  log  factor  75.0  50.0  3.19E+02  Kzp  1  0  1
KzKz26  log  factor  75.0  50.0  3.19E+02  Kzp  1  0  1
KzKz27  log  factor  75.0  50.0  3.19E+02  Kzp  1  0  1
KzKz28  log  factor  75.0  50.0  3.19E+02  Kzp  1  0  1
KzKz29  log  factor  75.0  50.0  3.19E+02  Kzp  1  0  1
KzKz30  log  factor  75.0  50.0  3.19E+02  Kzp  1  0  1
KzKz31  log  factor  75.0  50.0  3.19E+02  Kzp  1  0  1
KzKz32  log  factor  75.0  50.0  3.19E+02  Kzp  1  0  1
KzKz33  log  factor  75.0  50.0  3.19E+02  Kzp  1  0  1
KzKz34  log  factor  75.0  50.0  3.19E+02  Kzp  1  0  1
KzKz35  log  factor  75.0  50.0  3.19E+02  Kzp  1  0  1
KzKz36  log  factor  75.0  50.0  3.19E+02  Kzp  1  0  1
KzKz37  log  factor  75.0  50.0  3.19E+02  Kzp  1  0  1
KzKz38  log  factor  75.0  50.0  3.19E+02  Kzp  1  0  1
KzKz39  log  factor  75.0  50.0  3.19E+02  Kzp  1  0  1
KzKz40  log  factor  75.0  50.0  3.19E+02  Kzp  1  0  1
KzKz41  log  factor  75.0  50.0  3.19E+02  Kzp  1  0  1
KzKz42  log  factor  75.0  50.0  3.19E+02  Kzp  1  0  1
KzKz43  log  factor  75.0  50.0  3.19E+02  Kzp  1  0  1
KzKz44  log  factor  75.0  50.0  3.19E+02  Kzp  1  0  1
KzKz45  log  factor  75.0  50.0  3.19E+02  Kzp  1  0  1
KzKz46  log  factor  75.0  50.0  3.19E+02  Kzp  1  0  1
KzKz47  log  factor  75.0  50.0  3.19E+02  Kzp  1  0  1
KzKz48  log  factor  75.0  50.0  3.19E+02  Kzp  1  0  1
KzKz49  log  factor  75.0  50.0  3.19E+02  Kzp  1  0  1
KzKz50  log  factor  75.0  50.0  3.19E+02  Kzp  1  0  1
KzKz51  log  factor  75.0  50.0  3.19E+02  Kzp  1  0  1
KzKz52  log  factor  75.0  50.0  3.19E+02  Kzp  1  0  1
KzKz53  log  factor  75.0  50.0  3.19E+02  Kzp  1  0  1
KzKz54  log  factor  75.0  50.0  3.19E+02  Kzp  1  0  1
KzKz55  log  factor  75.0  50.0  3.19E+02  Kzp  1  0  1
KzKz56  log  factor  75.0  50.0  3.19E+02  Kzp  1  0  1
KzKz57  log  factor  75.0  50.0  3.19E+02  Kzp  1  0  1
KzKz58  log  factor  75.0  50.0  3.19E+02  Kzp  1  0  1
KzKz59  log  factor  75.0  50.0  3.19E+02  Kzp  1  0  1
KzKz60  log  factor  75.0  50.0  3.19E+02  Kzp  1  0  1
KzKz61  log  factor  75.0  50.0  3.19E+02  Kzp  1  0  1
KzKz62  log  factor  75.0  50.0  3.19E+02  Kzp  1  0  1
KzKz63  log  factor  75.0  50.0  3.19E+02  Kzp  1  0  1
KzKz64  log  factor  75.0  50.0  3.19E+02  Kzp  1  0  1
KzKz65  log  factor  75.0  50.0  3.19E+02  Kzp  1  0  1
KzKz66  log  factor  75.0  50.0  3.19E+02  Kzp  1  0  1
KzKz67  log  factor  75.0  50.0  3.19E+02  Kzp  1  0  1
KzKz68  log  factor  75.0  50.0  3.19E+02  Kzp  1  0  1
KzKz69  log  factor  75.0  50.0  3.19E+02  Kzp  1  0  1
KzKz70  log  factor  75.0  50.0  3.19E+02  Kzp  1  0  1
KzKz71  log  factor  75.0  50.0  3.19E+02  Kzp  1  0  1
KzKz72  log  factor  75.0  50.0  3.19E+02  Kzp  1  0  1
KzKz73  log  factor  75.0  50.0  3.19E+02  Kzp  1  0  1
KzKz74  log  factor  75.0  50.0  3.19E+02  Kzp  1  0  1
KzKz75  log  factor  75.0  50.0  3.19E+02  Kzp  1  0  1
KzKz76  log  factor  75.0  50.0  3.19E+02  Kzp  1  0  1
KzKz77  log  factor  75.0  50.0  3.19E+02  Kzp  1  0  1
KzKz78  log  factor  75.0  50.0  3.19E+02  Kzp  1  0  1
KzKz79  log  factor  75.0  50.0  3.19E+02  Kzp  1  0  1
KzKz80  log  factor  75.0  50.0  3.19E+02  Kzp  1  0  1
KzKz81  log  factor  75.0  50.0  3.19E+02  Kzp  1  0  1
KzKz82  log  factor  75.0  50.0  3.19E+02  Kzp  1  0  1
KzKz83  log  factor  75.0  50.0  3.19E+02  Kzp  1  0  1
KzKz84  log  factor  75.0  50.0  3.19E+02  Kzp  1  0  1
KzKz85  log  factor  75.0  50.0  3.19E+02  Kzp  1  0  1
KzKz86  log  factor  75.0  50.0  3.19E+02  Kzp  1  0  1
KzKz87  log  factor  75.0  50.0  3.19E+02  Kzp  1  0  1
KzKz88  log  factor  75.0  50.0  3.19E+02  Kzp  1  0  1
KzKz89  log  factor  75.0  50.0  3.19E+02  Kzp  1  0  1
KzKz90  log  factor  75.0  50.0  3.19E+02  Kzp  1  0  1
KzKz91  log  factor  75.0  50.0  3.19E+02  Kzp  1  0  1
KzKz92  log  factor  75.0  50.0  3.19E+02  Kzp  1  0  1
KzKz93  log  factor  75.0  50.0  3.19E+02  Kzp  1  0  1
KzKz94  log  factor  75.0  50.0  3.19E+02  Kzp  1  0  1
KzKz95  log  factor  75.0  50.0  3.19E+02  Kzp  1  0  1
KzKz96  log  factor  75.0  50.0  3.19E+02  Kzp  1  0  1
KzKz97  log  factor  75.0  50.0  3.19E+02  Kzp  1  0  1
KzKz98  log  factor  75.0  50.0  3.19E+02  Kzp  1  0  1
KzKz99  log  factor  75.0  50.0  3.19E+02  Kzp  1  0  1
KzKz100  log  factor  75.0  50.0  3.19E+02  Kzp  1  0  1
KzKz101  log  factor  75.0  50.0  3.19E+02  Kzp  1  0  1
KzKz102  log  factor  75.0  50.0  3.19E+02  Kzp  1  0  1
KzKz103  log  factor  75.0  50.0  3.19E+02  Kzp  1  0  1
KzKz104  log  factor  75.0  50.0  3.19E+02  Kzp  1  0  1
KzKz105  log  factor  75.0  50.0  3.19E+02  Kzp  1  0  1
KzKz106  log  factor  75.0  50.0  3.19E+02  Kzp  1  0  1
KzKz107  log  factor  75.0  50.0  3.19E+02  Kzp  1  0  1
KzKz108  log  factor  75.0  50.0  3.19E+02  Kzp  1  0  1
KzKz109  log  factor  75.0  50.0  3.19E+02  Kzp  1  0  1
KzKz110  log  factor  75.0  50.0  3.19E+02  Kzp  1  0  1
KzKz111  log  factor  75.0  50.0  3.19E+02  Kzp  1  0  1
KzKz112  log  factor  75.0  50.0  3.19E+02  Kzp  1  0  1
KzKz113  log  factor  75.0  50.0  3.19E+02  Kzp  1  0  1
KzKz114  log  factor  75.0  50.0  3.19E+02  Kzp  1  0  1
KzKz115  log  factor  75.0  50.0  3.19E+02  Kzp  1  0  1