pcf
* control data
restart estimation
     982     241       6     0      10
5  2  single  point  1  0  0
2.000000e+001  -3.000000e+000  3.000000e-001  1.000000e-002  7 999 lamforgive
1.000000e+001  1.000000e+001  1.000000e-003
1.000000e-001 1 noaui noboundscale
0 1.000000e-002  3  3  1.000000e-002  3
0  0  0   PARSAVEITN
* singular value decomposition
  1
  968  5.000000e-007
  1
* parameter groups
Kxp     relative   1.000000e-002  0.000000e+000  switch  2.000000e+000  parabolic 1.0e-5 0.5 smaller
Kzp     relative   1.000000e-002  0.000000e+000  switch  2.000000e+000  parabolic 1.0e-5 0.5 smaller
Kx     relative   1.000000e-002  0.000000e+000  switch  2.000000e+000  parabolic 1.0e-5 0.5 smaller
Kz     relative   1.000000e-002  0.000000e+000  switch  2.000000e+000  parabolic 1.0e-5 0.5 smaller
Rch relative   1.000000e-002  0.000000e+000  switch  2.000000e+000  parabolic 1.0e-5 0.5 smaller
Stor relative   1.000000e-002  0.000000e+000  switch  2.000000e+000  parabolic 1.0e-5 0.5 smaller
* parameter data
rm1 log factor    1.0000      0.75 1.50 rch 1 0 1
rm3 log factor    1.0000      0.75 1.50 rch 1 0 1
rm4 log factor    1.0000      0.75 1.50 rch 1 0 1
rm5 log factor    1.0000      0.75 1.50 rch 1 0 1
rm6 log factor    1.0000      0.75 1.50 rch 1 0 1
rm7 log factor    1.0000      0.75 1.50 rch 1 0 1
rm8 log factor    1.0000      0.75 1.50 rch 1 0 1
rm9 log factor    1.0000      0.75 1.50 rch 1 0 1
rm10 log factor    1.0000      0.75 1.50 rch 1 0 1
rm11 log factor    1.0000      0.75 1.50 rch 1 0 1
ss log factor  0.0019   0.001 0.003 Stor 1 0 1    
sy log factor 0.15   0.14 0.24 Stor 1 0 1
kx1 fixed factor    20.93588      1.0 50.0 kx 1 0 1
kx2 fixed factor    23.91289      1.0 50.0 kx 1 0 1
kx3 fixed factor    24.91564      1.0 50.0 kx 1 0 1
kx4 fixed factor    1.039576      0.1 10.0 kx 1 0 1
kx5 fixed factor    33.61840      1.0 50.0 kx 1 0 1
kx6 fixed factor    14.56955      1.0 50.0 kx 1 0 1
kx7 fixed factor    70.61691      1.0 150.0 kx 1 0 1
kx8 fixed factor   0.9978749      0.1 10.0 kx 1 0 1
kx13 fixed factor    211.5636      40.0 250.0 kx 1 0 1
kz1 fixed factor    1.950139      0.10 5.0 kz 1 0 1
kz2 fixed factor    2.713153      0.10 5.0  kz 1 0 1
kz3 fixed factor    2.494964      0.10 5.0  kz 1 0 1
kz4 fixed factor   0.1047190      0.01 1.0 kz 1 0 1
kz5 fixed factor    31.69431      1.0 50.0 kz 1 0 1
kz6 fixed factor    14.92254      1.0 50.0 kz 1 0 1
kz7 fixed factor    72.46920      1.0 150.0 kz 1 0 1
kz8 fixed factor    1.012133      0.1 10.0 kz 1 0 1
kz13 fixed factor    117.0812      30.0 130.0 kz 1 0 1
kpkx1  fixed  factor    234.2368      1.80e+02  5.00e+02  kxp  1  0  1
kpkx2  fixed  factor    219.0513      1.80e+02  5.00e+02  kxp  1  0  1
kpkx3  fixed  factor    237.2890      1.80e+02  5.00e+02  kxp  1  0  1
kpkx4  fixed  factor    222.0826      1.80e+02  5.00e+02  kxp  1  0  1
kpkx5  fixed  factor    229.2048      1.80e+02  5.00e+02  kxp  1  0  1
kpkx6  fixed  factor    233.8275      1.80e+02  5.00e+02  kxp  1  0  1
kpkx7  fixed  factor    235.5559      1.80e+02  5.00e+02  kxp  1  0  1
kpkx8  fixed  factor    223.2755      1.80e+02  5.00e+02  kxp  1  0  1
kpkx9  fixed  factor    233.1867      1.80e+02  5.00e+02  kxp  1  0  1
kpkx10  fixed  factor    222.0958      1.80e+02  5.00e+02  kxp  1  0  1
kpkx11  fixed  factor    229.8626      1.80e+02  5.00e+02  kxp  1  0  1
kpkx12  fixed  factor    230.8714      1.80e+02  5.00e+02  kxp  1  0  1
kpkx13  fixed  factor    221.6501      1.80e+02  5.00e+02  kxp  1  0  1
kpkx14  fixed  factor    232.9807      1.80e+02  5.00e+02  kxp  1  0  1
kpkx15  fixed  factor    236.7464      1.80e+02  5.00e+02  kxp  1  0  1
kpkx16  fixed  factor    228.2805      1.80e+02  5.00e+02  kxp  1  0  1
kpkx17  fixed  factor    228.9174      1.80e+02  5.00e+02  kxp  1  0  1
kpkx18  fixed  factor    230.4375      1.80e+02  5.00e+02  kxp  1  0  1
kpkx19  fixed  factor    235.5876      1.80e+02  5.00e+02  kxp  1  0  1
kpkx20  fixed  factor    233.1143      1.80e+02  5.00e+02  kxp  1  0  1
kpkx21  fixed  factor    227.1604      1.80e+02  5.00e+02  kxp  1  0  1
kpkx22  fixed  factor    253.6093      1.80e+02  5.00e+02  kxp  1  0  1
kpkx23  fixed  factor    230.3972      1.80e+02  5.00e+02  kxp  1  0  1
kpkx24  fixed  factor    244.6103      1.80e+02  5.00e+02  kxp  1  0  1
kpkx25  fixed  factor    231.4377      1.80e+02  5.00e+02  kxp  1  0  1
kpkx26  fixed  factor    230.1549      1.80e+02  5.00e+02  kxp  1  0  1
kpkx27  fixed  factor    226.5790      1.80e+02  5.00e+02  kxp  1  0  1
kpkx28  fixed  factor    215.8315      1.80e+02  5.00e+02  kxp  1  0  1
kpkx29  fixed  factor    228.2369      1.80e+02  5.00e+02  kxp  1  0  1
kpkx30  fixed  factor    240.9560      1.80e+02  5.00e+02  kxp  1  0  1
kpkx31  fixed  factor    230.1092      1.80e+02  5.00e+02  kxp  1  0  1
kpkx32  fixed  factor    235.2129      1.80e+02  5.00e+02  kxp  1  0  1
kpkx33  fixed  factor    224.6676      1.80e+02  5.00e+02  kxp  1  0  1
kpkx34  fixed  factor    197.8937      1.80e+02  5.00e+02  kxp  1  0  1
kpkx35  fixed  factor    215.4071      1.80e+02  5.00e+02  kxp  1  0  1
kpkx36  fixed  factor    247.7710      1.80e+02  5.00e+02  kxp  1  0  1
kpkx37  fixed  factor    233.2279      1.80e+02  5.00e+02  kxp  1  0  1
kpkx38  fixed  factor    241.0171      1.80e+02  5.00e+02  kxp  1  0  1
kpkx39  fixed  factor    229.9466      1.80e+02  5.00e+02  kxp  1  0  1
kpkx40  fixed  factor    223.2288      1.80e+02  5.00e+02  kxp  1  0  1
kpkx41  fixed  factor    228.4531      1.80e+02  5.00e+02  kxp  1  0  1
kpkx42  fixed  factor    228.5096      1.80e+02  5.00e+02  kxp  1  0  1
kpkx43  fixed  factor    236.3106      1.80e+02  5.00e+02  kxp  1  0  1
kpkx44  fixed  factor    231.7719      1.80e+02  5.00e+02  kxp  1  0  1
kpkx45  fixed  factor    225.2450      1.80e+02  5.00e+02  kxp  1  0  1
kpkx46  fixed  factor    226.8507      1.80e+02  5.00e+02  kxp  1  0  1
kpkx47  fixed  factor    233.1725      1.80e+02  5.00e+02  kxp  1  0  1
kpkx48  fixed  factor    235.7191      1.80e+02  5.00e+02  kxp  1  0  1
kpkx49  fixed  factor    211.1736      1.80e+02  5.00e+02  kxp  1  0  1
kpkx50  fixed  factor    227.0594      1.80e+02  5.00e+02  kxp  1  0  1
kpkx51  fixed  factor    227.5238      1.80e+02  5.00e+02  kxp  1  0  1
kpkx52  fixed  factor    234.1134      1.80e+02  5.00e+02  kxp  1  0  1
kpkx53  fixed  factor    226.3781      1.80e+02  5.00e+02  kxp  1  0  1
kpkx54  fixed  factor    219.7119      1.80e+02  5.00e+02  kxp  1  0  1
kpkx55  fixed  factor    234.2700      1.80e+02  5.00e+02  kxp  1  0  1
kpkx56  fixed  factor    230.4595      1.80e+02  5.00e+02  kxp  1  0  1
kpkx57  fixed  factor    229.4949      1.80e+02  5.00e+02  kxp  1  0  1
kpkx58  fixed  factor    228.6609      1.80e+02  5.00e+02  kxp  1  0  1
kpkx59  fixed  factor    226.5832      1.80e+02  5.00e+02  kxp  1  0  1
kpkx60  fixed  factor    234.0093      1.80e+02  5.00e+02  kxp  1  0  1
kpkx61  fixed  factor    232.6985      1.80e+02  5.00e+02  kxp  1  0  1
kpkx62  fixed  factor    230.8341      1.80e+02  5.00e+02  kxp  1  0  1
kpkx63  fixed  factor    227.0521      1.80e+02  5.00e+02  kxp  1  0  1
kpkx64  fixed  factor    228.6475      1.80e+02  5.00e+02  kxp  1  0  1
kpkx65  fixed  factor    231.5361      1.80e+02  5.00e+02  kxp  1  0  1
kpkx66  fixed  factor    231.7552      1.80e+02  5.00e+02  kxp  1  0  1
kpkx67  fixed  factor    231.7661      1.80e+02  5.00e+02  kxp  1  0  1
kpkx68  fixed  factor    229.0045      1.80e+02  5.00e+02  kxp  1  0  1
kpkx69  fixed  factor    221.5478      1.80e+02  5.00e+02  kxp  1  0  1
kpkx70  fixed  factor    227.5909      1.80e+02  5.00e+02  kxp  1  0  1
kpkx71  fixed  factor    233.0359      1.80e+02  5.00e+02  kxp  1  0  1
kpkx72  fixed  factor    225.7404      1.80e+02  5.00e+02  kxp  1  0  1
kpkx73  fixed  factor    238.2556      1.80e+02  5.00e+02  kxp  1  0  1
kpkx74  fixed  factor    234.5371      1.80e+02  5.00e+02  kxp  1  0  1
kpkx75  fixed  factor    230.8116      1.80e+02  5.00e+02  kxp  1  0  1
kpkx76  fixed  factor    235.0483      1.80e+02  5.00e+02  kxp  1  0  1
kpkx77  fixed  factor    220.8112      1.80e+02  5.00e+02  kxp  1  0  1
kpkx78  fixed  factor    236.0556      1.80e+02  5.00e+02  kxp  1  0  1
kpkx79  fixed  factor    222.4738      1.80e+02  5.00e+02  kxp  1  0  1
kpkx80  fixed  factor    225.3775      1.80e+02  5.00e+02  kxp  1  0  1
kpkx81  fixed  factor    217.5310      1.80e+02  5.00e+02  kxp  1  0  1
kpkx82  fixed  factor    227.4464      1.80e+02  5.00e+02  kxp  1  0  1
kpkx83  fixed  factor    229.2835      1.80e+02  5.00e+02  kxp  1  0  1
kpkx84  fixed  factor    229.7584      1.80e+02  5.00e+02  kxp  1  0  1
kpkx85  fixed  factor    236.7520      1.80e+02  5.00e+02  kxp  1  0  1
kpkx86  fixed  factor    237.7341      1.80e+02  5.00e+02  kxp  1  0  1
kpkx87  fixed  factor    234.4468      1.80e+02  5.00e+02  kxp  1  0  1
kpkx88  fixed  factor    238.7008      1.80e+02  5.00e+02  kxp  1  0  1
kpkx89  fixed  factor    227.7414      1.80e+02  5.00e+02  kxp  1  0  1
kpkx90  fixed  factor    246.5831      1.80e+02  5.00e+02  kxp  1  0  1
kpkx91  fixed  factor    230.7335      1.80e+02  5.00e+02  kxp  1  0  1
kpkx92  fixed  factor    228.2791      1.80e+02  5.00e+02  kxp  1  0  1
kpkx93  fixed  factor    225.2922      1.80e+02  5.00e+02  kxp  1  0  1
kpkx94  fixed  factor    231.1241      1.80e+02  5.00e+02  kxp  1  0  1
kpkx95  fixed  factor    229.3397      1.80e+02  5.00e+02  kxp  1  0  1
kpkx96  fixed  factor    227.7086      1.80e+02  5.00e+02  kxp  1  0  1
kpkx97  fixed  factor    228.7148      1.80e+02  5.00e+02  kxp  1  0  1
kpkx98  fixed  factor    227.9484      1.80e+02  5.00e+02  kxp  1  0  1
kpkx99  fixed  factor    226.4871      1.80e+02  5.00e+02  kxp  1  0  1
kpkx100  fixed  factor    229.7560      1.80e+02  5.00e+02  kxp  1  0  1
kpkx101  fixed  factor    228.9643      1.80e+02  5.00e+02  kxp  1  0  1
kpkx102  fixed  factor    230.3978      1.80e+02  5.00e+02  kxp  1  0  1
kpkx103  fixed  factor    231.5340      1.80e+02  5.00e+02  kxp  1  0  1
kpkx104  fixed  factor    231.9504      1.80e+02  5.00e+02  kxp  1  0  1
kpkx105  fixed  factor    230.3257      1.80e+02  5.00e+02  kxp  1  0  1
kpkx106  fixed  factor    234.2637      1.80e+02  5.00e+02  kxp  1  0  1
kpkx107  fixed  factor    209.7363      1.80e+02  5.00e+02  kxp  1  0  1
kpkx108  fixed  factor    232.2426      1.80e+02  5.00e+02  kxp  1  0  1
kpkx109  fixed  factor    230.3541      1.80e+02  5.00e+02  kxp  1  0  1
kpkx110  fixed  factor    236.5350      1.80e+02  5.00e+02  kxp  1  0  1
kpkx111  fixed  factor    219.4000      1.80e+02  5.00e+02  kxp  1  0  1
kpkx112  fixed  factor    230.3203      1.80e+02  5.00e+02  kxp  1  0  1
kpkx113  fixed  factor    230.4031      1.80e+02  5.00e+02  kxp  1  0  1
kpkx114  fixed  factor    233.1494      1.80e+02  5.00e+02  kxp  1  0  1
kpkx115  fixed  factor    230.9747      1.80e+02  5.00e+02  kxp  1  0  1
kpkx116  fixed  factor    226.2757      1.80e+02  5.00e+02  kxp  1  0  1
kpkx117  fixed  factor    234.1900      1.80e+02  5.00e+02  kxp  1  0  1
kpkx118  fixed  factor    233.7054      1.80e+02  5.00e+02  kxp  1  0  1
kpkx119  fixed  factor    229.5269      1.80e+02  5.00e+02  kxp  1  0  1
kpkx120  fixed  factor    231.5174      1.80e+02  5.00e+02  kxp  1  0  1
kpkx121  fixed  factor    230.7716      1.80e+02  5.00e+02  kxp  1  0  1
kpkx122  fixed  factor    232.2730      1.80e+02  5.00e+02  kxp  1  0  1
kpkx123  fixed  factor    226.3121      1.80e+02  5.00e+02  kxp  1  0  1
kpkx124  fixed  factor    234.8095      1.80e+02  5.00e+02  kxp  1  0  1
kpkx125  fixed  factor    235.1917      1.80e+02  5.00e+02  kxp  1  0  1
kpkx126  fixed  factor    229.6356      1.80e+02  5.00e+02  kxp  1  0  1
kpkx127  fixed  factor    224.9478      1.80e+02  5.00e+02  kxp  1  0  1
kpkx128  fixed  factor    223.3188      1.80e+02  5.00e+02  kxp  1  0  1
kpkx129  fixed  factor    233.7080      1.80e+02  5.00e+02  kxp  1  0  1
kpkx130  fixed  factor    231.0144      1.80e+02  5.00e+02  kxp  1  0  1
kpkx131  fixed  factor    228.4607      1.80e+02  5.00e+02  kxp  1  0  1
kpkx132  fixed  factor    230.0694      1.80e+02  5.00e+02  kxp  1  0  1
kpkx133  fixed  factor    227.4305      1.80e+02  5.00e+02  kxp  1  0  1
kpkx134  fixed  factor    230.2471      1.80e+02  5.00e+02  kxp  1  0  1
kpkx135  fixed  factor    228.4190      1.80e+02  5.00e+02  kxp  1  0  1
kpkx136  fixed  factor    227.8141      1.80e+02  5.00e+02  kxp  1  0  1
kpkx137  fixed  factor    210.8601      1.80e+02  5.00e+02  kxp  1  0  1
kpkx138  fixed  factor    223.0437      1.80e+02  5.00e+02  kxp  1  0  1
kpkx139  fixed  factor    225.6610      1.80e+02  5.00e+02  kxp  1  0  1
kpkx140  fixed  factor    231.2422      1.80e+02  5.00e+02  kxp  1  0  1
kpkx141  fixed  factor    229.7747      1.80e+02  5.00e+02  kxp  1  0  1
kpkx142  fixed  factor    232.7129      1.80e+02  5.00e+02  kxp  1  0  1
kpkx143  fixed  factor    229.9763      1.80e+02  5.00e+02  kxp  1  0  1
kpkx144  fixed  factor    222.3575      1.80e+02  5.00e+02  kxp  1  0  1
kpkx145  fixed  factor    244.2383      1.80e+02  5.00e+02  kxp  1  0  1
kpkx146  fixed  factor    229.5642      1.80e+02  5.00e+02  kxp  1  0  1
kpkx147  fixed  factor    231.6169      1.80e+02  5.00e+02  kxp  1  0  1
kpkx148  fixed  factor    236.7655      1.80e+02  5.00e+02  kxp  1  0  1
kpkx149  fixed  factor    231.9244      1.80e+02  5.00e+02  kxp  1  0  1
kpkx150  fixed  factor    231.8600      1.80e+02  5.00e+02  kxp  1  0  1
kpkx151  fixed  factor    226.5142      1.80e+02  5.00e+02  kxp  1  0  1
kpkx152  fixed  factor    225.2414      1.80e+02  5.00e+02  kxp  1  0  1
kpkx153  fixed  factor    236.6698      1.80e+02  5.00e+02  kxp  1  0  1
kpkx154  fixed  factor    224.8679      1.80e+02  5.00e+02  kxp  1  0  1
kpkx155  fixed  factor    234.5556      1.80e+02  5.00e+02  kxp  1  0  1
kpkx156  fixed  factor    235.5408      1.80e+02  5.00e+02  kxp  1  0  1
kpkx157  fixed  factor    227.2279      1.80e+02  5.00e+02  kxp  1  0  1
kpkx158  fixed  factor    240.8092      1.80e+02  5.00e+02  kxp  1  0  1
kpkx159  fixed  factor    219.3849      1.80e+02  5.00e+02  kxp  1  0  1
kpkx160  fixed  factor    228.9398      1.80e+02  5.00e+02  kxp  1  0  1
kpkx161  fixed  factor    224.6470      1.80e+02  5.00e+02  kxp  1  0  1
kpkx162  fixed  factor    231.1987      1.80e+02  5.00e+02  kxp  1  0  1
kpkx163  fixed  factor    234.0527      1.80e+02  5.00e+02  kxp  1  0  1
kpkx164  fixed  factor    227.5388      1.80e+02  5.00e+02  kxp  1  0  1
kpkx165  fixed  factor    235.7663      1.80e+02  5.00e+02  kxp  1  0  1
kpkx166  fixed  factor    232.8324      1.80e+02  5.00e+02  kxp  1  0  1
kpkx167  fixed  factor    232.2930      1.80e+02  5.00e+02  kxp  1  0  1
kpkx168  fixed  factor    227.6570      1.80e+02  5.00e+02  kxp  1  0  1
kpkx169  fixed  factor    226.5260      1.80e+02  5.00e+02  kxp  1  0  1
kpkx170  fixed  factor    229.1955      1.80e+02  5.00e+02  kxp  1  0  1
kpkx171  fixed  factor    232.2553      1.80e+02  5.00e+02  kxp  1  0  1
kpkx172  fixed  factor    237.3788      1.80e+02  5.00e+02  kxp  1  0  1
kpkx173  fixed  factor    231.2554      1.80e+02  5.00e+02  kxp  1  0  1
kpkx174  fixed  factor    231.1901      1.80e+02  5.00e+02  kxp  1  0  1
kpkx175  fixed  factor    226.3801      1.80e+02  5.00e+02  kxp  1  0  1
kpkx176  fixed  factor    241.0233      1.80e+02  5.00e+02  kxp  1  0  1
kpkx177  fixed  factor    237.3826      1.80e+02  5.00e+02  kxp  1  0  1
kpkx178  fixed  factor    230.0016      1.80e+02  5.00e+02  kxp  1  0  1
kpkx179  fixed  factor    225.1326      1.80e+02  5.00e+02  kxp  1  0  1
kpkx180  fixed  factor    241.7231      1.80e+02  5.00e+02  kxp  1  0  1
kpkx181  fixed  factor    232.9777      1.80e+02  5.00e+02  kxp  1  0  1
kpkx182  fixed  factor    225.6321      1.80e+02  5.00e+02  kxp  1  0  1
kpkx183  fixed  factor    234.7892      1.80e+02  5.00e+02  kxp  1  0  1
kpkx184  fixed  factor    228.7094      1.80e+02  5.00e+02  kxp  1  0  1
kpkx185  fixed  factor    220.9380      1.80e+02  5.00e+02  kxp  1  0  1
kpkx186  fixed  factor    237.6615      1.80e+02  5.00e+02  kxp  1  0  1
kpkx187  fixed  factor    222.0291      1.80e+02  5.00e+02  kxp  1  0  1
kpkx188  fixed  factor    232.4176      1.80e+02  5.00e+02  kxp  1  0  1
kpkx189  fixed  factor    234.5090      1.80e+02  5.00e+02  kxp  1  0  1
kpkx190  fixed  factor    221.7915      1.80e+02  5.00e+02  kxp  1  0  1
kpkx191  fixed  factor    254.0290      1.80e+02  5.00e+02  kxp  1  0  1
kpkx192  fixed  factor    230.4004      1.80e+02  5.00e+02  kxp  1  0  1
kpkx193  fixed  factor    230.4579      1.80e+02  5.00e+02  kxp  1  0  1
kpkx194  fixed  factor    237.0372      1.80e+02  5.00e+02  kxp  1  0  1
kpkx195  fixed  factor    233.8492      1.80e+02  5.00e+02  kxp  1  0  1
kpkx196  fixed  factor    246.2564      1.80e+02  5.00e+02  kxp  1  0  1
kpkx197  fixed  factor    226.6724      1.80e+02  5.00e+02  kxp  1  0  1
kpkx198  fixed  factor    246.0590      1.80e+02  5.00e+02  kxp  1  0  1
kpkx199  fixed  factor    223.3964      1.80e+02  5.00e+02  kxp  1  0  1
kpkx200  fixed  factor    234.9117      1.80e+02  5.00e+02  kxp  1  0  1
kpkx201  fixed  factor    234.4448      1.80e+02  5.00e+02  kxp  1  0  1
kpkx202  fixed  factor    233.2129      1.80e+02  5.00e+02  kxp  1  0  1
kpkx203  fixed  factor    238.5257      1.80e+02  5.00e+02  kxp  1  0  1
kpkx204  fixed  factor    237.0236      1.80e+02  5.00e+02  kxp  1  0  1
kpkx205  fixed  factor    225.3466      1.80e+02  5.00e+02  kxp  1  0  1
kpkx206  fixed  factor    228.3430      1.80e+02  5.00e+02  kxp  1  0  1
kpkx207  fixed  factor    222.1276      1.80e+02  5.00e+02  kxp  1  0  1
kpkx208  fixed  factor    230.7826      1.80e+02  5.00e+02  kxp  1  0  1
kpkx209  fixed  factor    227.0161      1.80e+02  5.00e+02  kxp  1  0  1
kpkx210  fixed  factor    237.7449      1.80e+02  5.00e+02  kxp  1  0  1
kpkx211  fixed  factor    223.2978      1.80e+02  5.00e+02  kxp  1  0  1
kpkx212  fixed  factor    228.9128      1.80e+02  5.00e+02  kxp  1  0  1
kpkx213  fixed  factor    225.6811      1.80e+02  5.00e+02  kxp  1  0  1
kpkx214  fixed  factor    233.5429      1.80e+02  5.00e+02  kxp  1  0  1
kpkx215  fixed  factor    224.4221      1.80e+02  5.00e+02  kxp  1  0  1
kpkx216  fixed  factor    228.3842      1.80e+02  5.00e+02  kxp  1  0  1
kpkx217  fixed  factor    230.4268      1.80e+02  5.00e+02  kxp  1  0  1
kpkx218  fixed  factor    230.6505      1.80e+02  5.00e+02  kxp  1  0  1
kpkx219  fixed  factor    231.9047      1.80e+02  5.00e+02  kxp  1  0  1
kpkx220  fixed  factor    233.5839      1.80e+02  5.00e+02  kxp  1  0  1
kpkx221  fixed  factor    225.6403      1.80e+02  5.00e+02  kxp  1  0  1
kpkx222  fixed  factor    227.7857      1.80e+02  5.00e+02  kxp  1  0  1
kpkx223  fixed  factor    230.4157      1.80e+02  5.00e+02  kxp  1  0  1
kpkx224  fixed  factor    240.2395      1.80e+02  5.00e+02  kxp  1  0  1
kpkx225  fixed  factor    227.2037      1.80e+02  5.00e+02  kxp  1  0  1
kpkx226  fixed  factor    240.8898      1.80e+02  5.00e+02  kxp  1  0  1
kpkx227  fixed  factor    266.8889      1.80e+02  5.00e+02  kxp  1  0  1
kpkx228  fixed  factor    231.6156      1.80e+02  5.00e+02  kxp  1  0  1
kpkx229  fixed  factor    236.7691      1.80e+02  5.00e+02  kxp  1  0  1
kpkx230  fixed  factor    230.7820      1.80e+02  5.00e+02  kxp  1  0  1
kpkx231  fixed  factor    230.1571      1.80e+02  5.00e+02  kxp  1  0  1
kpkx232  fixed  factor    226.2248      1.80e+02  5.00e+02  kxp  1  0  1
kpkx233  fixed  factor    230.2401      1.80e+02  5.00e+02  kxp  1  0  1
kpkx234  fixed  factor    233.0034      1.80e+02  5.00e+02  kxp  1  0  1
kpkx235  fixed  factor    226.2117      1.80e+02  5.00e+02  kxp  1  0  1
kpkx236  fixed  factor    198.2077      1.80e+02  5.00e+02  kxp  1  0  1
kpkx237  fixed  factor    233.2412      1.80e+02  5.00e+02  kxp  1  0  1
kpkx238  fixed  factor    230.2893      1.80e+02  5.00e+02  kxp  1  0  1
kpkx239  fixed  factor    230.1768      1.80e+02  5.00e+02  kxp  1  0  1
kpkx240  fixed  factor    227.2275      1.80e+02  5.00e+02  kxp  1  0  1
kpkx241  fixed  factor    228.1207      1.80e+02  5.00e+02  kxp  1  0  1
kpkx242  fixed  factor    232.4351      1.80e+02  5.00e+02  kxp  1  0  1
kpkx243  fixed  factor    231.7615      1.80e+02  5.00e+02  kxp  1  0  1
kpkx244  fixed  factor    230.2360      1.80e+02  5.00e+02  kxp  1  0  1
kpkx245  fixed  factor    221.1754      1.80e+02  5.00e+02  kxp  1  0  1
kpkx246  fixed  factor    229.2287      1.80e+02  5.00e+02  kxp  1  0  1
kpkx247  fixed  factor    238.6401      1.80e+02  5.00e+02  kxp  1  0  1
kpkx248  fixed  factor    234.5107      1.80e+02  5.00e+02  kxp  1  0  1
kpkx249  fixed  factor    224.8459      1.80e+02  5.00e+02  kxp  1  0  1
kpkx250  fixed  factor    235.9306      1.80e+02  5.00e+02  kxp  1  0  1
kpkx251  fixed  factor    222.4712      1.80e+02  5.00e+02  kxp  1  0  1
kpkx252  fixed  factor    227.2966      1.80e+02  5.00e+02  kxp  1  0  1
kpkx253  fixed  factor    226.0591      1.80e+02  5.00e+02  kxp  1  0  1
kpkx254  fixed  factor    228.2956      1.80e+02  5.00e+02  kxp  1  0  1
kpkx255  fixed  factor    226.4215      1.80e+02  5.00e+02  kxp  1  0  1
kpkx256  fixed  factor    229.4725      1.80e+02  5.00e+02  kxp  1  0  1
kpkx257  fixed  factor    229.8713      1.80e+02  5.00e+02  kxp  1  0  1
kpkx258  fixed  factor    232.3294      1.80e+02  5.00e+02  kxp  1  0  1
kpkx259  fixed  factor    235.4517      1.80e+02  5.00e+02  kxp  1  0  1
kpkx260  fixed  factor    240.7380      1.80e+02  5.00e+02  kxp  1  0  1
kpkx261  fixed  factor    220.6994      1.80e+02  5.00e+02  kxp  1  0  1
kpkx262  fixed  factor    233.8951      1.80e+02  5.00e+02  kxp  1  0  1
kpkx263  fixed  factor    229.0467      1.80e+02  5.00e+02  kxp  1  0  1
kpkx264  fixed  factor    231.7889      1.80e+02  5.00e+02  kxp  1  0  1
kpkx265  fixed  factor    233.7647      1.80e+02  5.00e+02  kxp  1  0  1
kpkx266  fixed  factor    235.5446      1.80e+02  5.00e+02  kxp  1  0  1
kpkx267  fixed  factor    227.0811      1.80e+02  5.00e+02  kxp  1  0  1
kpkx268  fixed  factor    226.9492      1.80e+02  5.00e+02  kxp  1  0  1
kpkx269  fixed  factor    229.0146      1.80e+02  5.00e+02  kxp  1  0  1
kpkx270  fixed  factor    237.4583      1.80e+02  5.00e+02  kxp  1  0  1
kpkx271  fixed  factor    226.0111      1.80e+02  5.00e+02  kxp  1  0  1
kpkx272  fixed  factor    225.5624      1.80e+02  5.00e+02  kxp  1  0  1
kpkx273  fixed  factor    215.9199      1.80e+02  5.00e+02  kxp  1  0  1
kpkx274  fixed  factor    223.7594      1.80e+02  5.00e+02  kxp  1  0  1
kpkx275  fixed  factor    231.9724      1.80e+02  5.00e+02  kxp  1  0  1
kpkx276  fixed  factor    228.8539      1.80e+02  5.00e+02  kxp  1  0  1
kpkx277  fixed  factor    225.4248      1.80e+02  5.00e+02  kxp  1  0  1
kpkx278  fixed  factor    233.8069      1.80e+02  5.00e+02  kxp  1  0  1
kpkx279  fixed  factor    229.6881      1.80e+02  5.00e+02  kxp  1  0  1
kpkx280  fixed  factor    225.9834      1.80e+02  5.00e+02  kxp  1  0  1
kpkx281  fixed  factor    231.6215      1.80e+02  5.00e+02  kxp  1  0  1
kpkx282  fixed  factor    231.3791      1.80e+02  5.00e+02  kxp  1  0  1
kpkx283  fixed  factor    228.4433      1.80e+02  5.00e+02  kxp  1  0  1
kpkx284  fixed  factor    229.3738      1.80e+02  5.00e+02  kxp  1  0  1
kpkx285  fixed  factor    233.4396      1.80e+02  5.00e+02  kxp  1  0  1
kpkx286  fixed  factor    233.6891      1.80e+02  5.00e+02  kxp  1  0  1
kpkx287  fixed  factor    230.7329      1.80e+02  5.00e+02  kxp  1  0  1
kpkx288  fixed  factor    234.5432      1.80e+02  5.00e+02  kxp  1  0  1
kpkx289  fixed  factor    229.5160      1.80e+02  5.00e+02  kxp  1  0  1
kpkx290  fixed  factor    232.7007      1.80e+02  5.00e+02  kxp  1  0  1
kpkx291  fixed  factor    238.4000      1.80e+02  5.00e+02  kxp  1  0  1
kpkx292  fixed  factor    227.7471      1.80e+02  5.00e+02  kxp  1  0  1
kpkx293  fixed  factor    228.8985      1.80e+02  5.00e+02  kxp  1  0  1
kpkx294  fixed  factor    234.1974      1.80e+02  5.00e+02  kxp  1  0  1
kpkx295  fixed  factor    232.9593      1.80e+02  5.00e+02  kxp  1  0  1
kpkx296  fixed  factor    221.0512      1.80e+02  5.00e+02  kxp  1  0  1
kpkx297  fixed  factor    229.3170      1.80e+02  5.00e+02  kxp  1  0  1
kpkx298  fixed  factor    231.4198      1.80e+02  5.00e+02  kxp  1  0  1
kpkx299  fixed  factor    232.0806      1.80e+02  5.00e+02  kxp  1  0  1
kpkx300  fixed  factor    232.8386      1.80e+02  5.00e+02  kxp  1  0  1
kpkx301  fixed  factor    235.0927      1.80e+02  5.00e+02  kxp  1  0  1
kpkx302  fixed  factor    241.8926      1.80e+02  5.00e+02  kxp  1  0  1
kpkx303  fixed  factor    237.0326      1.80e+02  5.00e+02  kxp  1  0  1
kpkx304  fixed  factor    228.4584      1.80e+02  5.00e+02  kxp  1  0  1
kpkx305  fixed  factor    230.1354      1.80e+02  5.00e+02  kxp  1  0  1
kpkx306  fixed  factor    225.8286      1.80e+02  5.00e+02  kxp  1  0  1
kpkx307  fixed  factor    232.6894      1.80e+02  5.00e+02  kxp  1  0  1
kpkx308  fixed  factor    235.3279      1.80e+02  5.00e+02  kxp  1  0  1
kpkx309  fixed  factor    237.0729      1.80e+02  5.00e+02  kxp  1  0  1
kpkx310  fixed  factor    233.0771      1.80e+02  5.00e+02  kxp  1  0  1
kpkx311  fixed  factor    228.3154      1.80e+02  5.00e+02  kxp  1  0  1
kpkx312  fixed  factor    219.7136      1.80e+02  5.00e+02  kxp  1  0  1
kpkx313  fixed  factor    230.3221      1.80e+02  5.00e+02  kxp  1  0  1
kpkx314  fixed  factor    233.3632      1.80e+02  5.00e+02  kxp  1  0  1
kpkx315  fixed  factor    236.5953      1.80e+02  5.00e+02  kxp  1  0  1
kpkx316  fixed  factor    222.6405      1.80e+02  5.00e+02  kxp  1  0  1
kpkx317  fixed  factor    241.3580      1.80e+02  5.00e+02  kxp  1  0  1
kpkx318  fixed  factor    233.9082      1.80e+02  5.00e+02  kxp  1  0  1
kpkx319  fixed  factor    206.0715      1.80e+02  5.00e+02  kxp  1  0  1
kpkx320  fixed  factor    234.5433      1.80e+02  5.00e+02  kxp  1  0  1
kpkx321  fixed  factor    232.8532      1.80e+02  5.00e+02  kxp  1  0  1
kpkx322  fixed  factor    233.9011      1.80e+02  5.00e+02  kxp  1  0  1
kpkx323  fixed  factor    230.2996      1.80e+02  5.00e+02  kxp  1  0  1
kpkx324  fixed  factor    231.6487      1.80e+02  5.00e+02  kxp  1  0  1
kpkx325  fixed  factor    230.1223      1.80e+02  5.00e+02  kxp  1  0  1
kpkx326  fixed  factor    228.2640      1.80e+02  5.00e+02  kxp  1  0  1
kpkx327  fixed  factor    234.3337      1.80e+02  5.00e+02  kxp  1  0  1
kpkx328  fixed  factor    230.8705      1.80e+02  5.00e+02  kxp  1  0  1
kpkx329  fixed  factor    234.6241      1.80e+02  5.00e+02  kxp  1  0  1
kpkx330  fixed  factor    232.3652      1.80e+02  5.00e+02  kxp  1  0  1
kpkx331  fixed  factor    227.7787      1.80e+02  5.00e+02  kxp  1  0  1
kpkx332  fixed  factor    232.8634      1.80e+02  5.00e+02  kxp  1  0  1
kpkx333  fixed  factor    235.3718      1.80e+02  5.00e+02  kxp  1  0  1
kpkx334  fixed  factor    224.5475      1.80e+02  5.00e+02  kxp  1  0  1
kpkx335  fixed  factor    234.0640      1.80e+02  5.00e+02  kxp  1  0  1
kpkx336  fixed  factor    229.2400      1.80e+02  5.00e+02  kxp  1  0  1
kpkx337  fixed  factor    224.7754      1.80e+02  5.00e+02  kxp  1  0  1
kpkx338  fixed  factor    224.1639      1.80e+02  5.00e+02  kxp  1  0  1
kpkx339  fixed  factor    222.7239      1.80e+02  5.00e+02  kxp  1  0  1
kpkx340  fixed  factor    222.3679      1.80e+02  5.00e+02  kxp  1  0  1
kpkx341  fixed  factor    233.3281      1.80e+02  5.00e+02  kxp  1  0  1
kpkx342  fixed  factor    231.0973      1.80e+02  5.00e+02  kxp  1  0  1
kpkx343  fixed  factor    238.0766      1.80e+02  5.00e+02  kxp  1  0  1
kpkx344  fixed  factor    228.3226      1.80e+02  5.00e+02  kxp  1  0  1
kpkx345  fixed  factor    230.4036      1.80e+02  5.00e+02  kxp  1  0  1
kpkx346  fixed  factor    231.8950      1.80e+02  5.00e+02  kxp  1  0  1
kpkx347  fixed  factor    227.7185      1.80e+02  5.00e+02  kxp  1  0  1
kpkx348  fixed  factor    227.1835      1.80e+02  5.00e+02  kxp  1  0  1
kpkx349  fixed  factor    222.7008      1.80e+02  5.00e+02  kxp  1  0  1
kpkx350  fixed  factor    224.1764      1.80e+02  5.00e+02  kxp  1  0  1
kpkx351  fixed  factor    220.0901      1.80e+02  5.00e+02  kxp  1  0  1
kpkx352  fixed  factor    229.9733      1.80e+02  5.00e+02  kxp  1  0  1
kpkx353  fixed  factor    228.5125      1.80e+02  5.00e+02  kxp  1  0  1
kpkx354  fixed  factor    232.3596      1.80e+02  5.00e+02  kxp  1  0  1
kpkx355  fixed  factor    232.1666      1.80e+02  5.00e+02  kxp  1  0  1
kpkx356  fixed  factor    212.6641      1.80e+02  5.00e+02  kxp  1  0  1
kpkx357  fixed  factor    229.6747      1.80e+02  5.00e+02  kxp  1  0  1
kpkx358  fixed  factor    230.1390      1.80e+02  5.00e+02  kxp  1  0  1
kpkx359  fixed  factor    228.3456      1.80e+02  5.00e+02  kxp  1  0  1
kpkx360  fixed  factor    227.3936      1.80e+02  5.00e+02  kxp  1  0  1
kpkx361  fixed  factor    229.9909      1.80e+02  5.00e+02  kxp  1  0  1
kpkx362  fixed  factor    236.4624      1.80e+02  5.00e+02  kxp  1  0  1
kpkx363  fixed  factor    226.4391      1.80e+02  5.00e+02  kxp  1  0  1
kpkx364  fixed  factor    235.7521      1.80e+02  5.00e+02  kxp  1  0  1
kpkx365  fixed  factor    232.6534      1.80e+02  5.00e+02  kxp  1  0  1
kpkx366  fixed  factor    236.1062      1.80e+02  5.00e+02  kxp  1  0  1
kpkx367  fixed  factor    226.4468      1.80e+02  5.00e+02  kxp  1  0  1
kpkx368  fixed  factor    224.6779      1.80e+02  5.00e+02  kxp  1  0  1
kpkx369  fixed  factor    236.5227      1.80e+02  5.00e+02  kxp  1  0  1
kpkx370  fixed  factor    220.8367      1.80e+02  5.00e+02  kxp  1  0  1
kpkx371  fixed  factor    233.0180      1.80e+02  5.00e+02  kxp  1  0  1