pcf
* control data
restart estimation
     686     100       6    0      12
5  2  single  point  1  0  0
2.000000e+001  -3.000000e+000  3.000000e-001  1.000000e-002 -7 999 lamforgive
1.000000e+001  1.000000e+001  1.000000e-003
1.000000e-001 1 noaui noboundscale
10 1.000000e-002  3  3  1.000000e-002  3
0  0  0   PARSAVEITN
* singular value decomposition
  1
  25  5.000000e-007
  1
* parameter groups
Kxp     relative   1.000000e-002  0.000000e+000  switch  2.000000e+000  parabolic 1.0e-5 0.5 smaller
Kzp     relative   1.000000e-002  0.000000e+000  switch  2.000000e+000  parabolic 1.0e-5 0.5 smaller
Kx     relative   1.000000e-002  0.000000e+000  switch  2.000000e+000  parabolic 1.0e-5 0.5 smaller
Kz     relative   1.000000e-002  0.000000e+000  switch  2.000000e+000  parabolic 1.0e-5 0.5 smaller
Rch relative   1.000000e-002  0.000000e+000  switch  2.000000e+000  parabolic 1.0e-5 0.5 smaller
SFRc relative   1.000000e-002  0.000000e+000  switch  2.000000e+000  parabolic 1.0e-5 0.5 smaller
* parameter data
sfrc fixed factor   2.8      0.5 200.0 sfrc 1 0 1
rm1 log factor    1.140405      0.85 1.25 rch 1 0 1
rm2 tied factor    1.140405      0.85 1.25 rch 1 0 1
rm3 tied factor    1.140405      0.85 1.25 rch 1 0 1
rm4 tied factor    1.140405      0.85 1.25 rch 1 0 1
rm5 tied factor    1.140405      0.85 1.25 rch 1 0 1
rm6 tied factor    1.140405      0.85 1.25 rch 1 0 1
rm7 tied factor    1.140405      0.85 1.25 rch 1 0 1
kx1 log factor    19.23794      1.0 50.0 kx 1 0 1
kx2 log factor    25.52462      1.0 50.0 kx 1 0 1
kx21 log factor    24.93108      1.0 50.0 kx 1 0 1
kx3 log factor    23.56273      1.0 50.0 kx 1 0 1
kx4 log factor    1.021700      0.1 10.0 kx 1 0 1
kx5 log factor    21.16760      1.0 50.0 kx 1 0 1
kx6 log factor    16.40179      1.0 50.0 kx 1 0 1
kx8 log factor    1.017082      0.1 10.0 kx 1 0 1
kx81 log factor    1.005842      0.1 10.0 kx 1 0 1
kx13 log factor    157.9511      40.0 250.0 kx 1 0 1
kx14 log factor    47.83195      20.0 80.0 kx 1 0 1
kx15 log factor    48.71790      20.0 80.0 kx 1 0 1
kz1 log factor    2.003538      0.10 5.0 kz 1 0 1
kz2 log factor    2.455603      0.10 5.0  kz 1 0 1
kz21 log factor    2.583414      0.10 5.0  kz 1 0 1
kz3 log factor    2.479454      0.10 5.0  kz 1 0 1
kz4 log factor   9.9419264E-02  0.01 1.0 kz 1 0 1
kz5 log factor    20.60792      1.0 50.0 kz 1 0 1
kz6 log factor    15.61768      1.0 50.0 kz 1 0 1
kz8 log factor   0.9590616      0.1 10.0 kz 1 0 1
kz81 log factor   0.9822517      0.1 10.0 kz 1 0 1
kz13 log factor    10.02539      3.0 130.0 kz 1 0 1
kz14 log factor    3.500713      2.0 8.0 kz 1 0 1
kz15 log factor    3.738628      2.0 8.0 kz 1 0 1
kpkp1  log  factor    213.8025      1.20e+02  5.00e+02  kxp  1  0  1
kpkp2  tied  factor    218.9222      1.20e+02  5.00e+02  kxp  1  0  1
kpkp3  tied  factor    214.2358      1.20e+02  5.00e+02  kxp  1  0  1
kpkp4  tied  factor    221.9033      1.20e+02  5.00e+02  kxp  1  0  1
kpkp5  tied  factor    220.6002      1.20e+02  5.00e+02  kxp  1  0  1
kpkp6  tied  factor    219.9219      1.20e+02  5.00e+02  kxp  1  0  1
kpkp7  tied  factor    230.3635      1.20e+02  5.00e+02  kxp  1  0  1
kpkp8  tied  factor    223.3713      1.20e+02  5.00e+02  kxp  1  0  1
kpkp9  tied  factor    223.0581      1.20e+02  5.00e+02  kxp  1  0  1
kpkp10  tied  factor    221.3810      1.20e+02  5.00e+02  kxp  1  0  1
kpkp11  tied  factor    216.2354      1.20e+02  5.00e+02  kxp  1  0  1
kpkp12  tied  factor    214.2138      1.20e+02  5.00e+02  kxp  1  0  1
kpkp13  tied  factor    220.2174      1.20e+02  5.00e+02  kxp  1  0  1
kpkp14  tied  factor    221.1409      1.20e+02  5.00e+02  kxp  1  0  1
kpkp15  tied  factor    217.6525      1.20e+02  5.00e+02  kxp  1  0  1
kpkp16  tied  factor    218.2015      1.20e+02  5.00e+02  kxp  1  0  1
kpkp17  tied  factor    224.0931      1.20e+02  5.00e+02  kxp  1  0  1
kpkp18  tied  factor    223.3384      1.20e+02  5.00e+02  kxp  1  0  1
kpkp19  tied  factor    217.5401      1.20e+02  5.00e+02  kxp  1  0  1
kpkp20  tied  factor    232.4312      1.20e+02  5.00e+02  kxp  1  0  1
kpkp21  tied  factor    221.8596      1.20e+02  5.00e+02  kxp  1  0  1
kpkp22  tied  factor    226.1667      1.20e+02  5.00e+02  kxp  1  0  1
kpkp23  tied  factor    217.7518      1.20e+02  5.00e+02  kxp  1  0  1
kpkp24  tied  factor    219.9882      1.20e+02  5.00e+02  kxp  1  0  1
kpkp25  tied  factor    223.8274      1.20e+02  5.00e+02  kxp  1  0  1
kpkp26  tied  factor    221.7040      1.20e+02  5.00e+02  kxp  1  0  1
kpkp27  tied  factor    232.6614      1.20e+02  5.00e+02  kxp  1  0  1
kpkp28  tied  factor    227.5656      1.20e+02  5.00e+02  kxp  1  0  1
kpkp29  tied  factor    217.5507      1.20e+02  5.00e+02  kxp  1  0  1
kpkp30  tied  factor    217.0030      1.20e+02  5.00e+02  kxp  1  0  1
kpkp31  tied  factor    225.2604      1.20e+02  5.00e+02  kxp  1  0  1
kpkp32  tied  factor    227.0420      1.20e+02  5.00e+02  kxp  1  0  1
kpkp33  tied  factor    217.1118      1.20e+02  5.00e+02  kxp  1  0  1
kpkp34  tied  factor    201.9115      1.20e+02  5.00e+02  kxp  1  0  1
kpkp35  tied  factor    225.3331      1.20e+02  5.00e+02  kxp  1  0  1
kpkp36  tied  factor    217.3563      1.20e+02  5.00e+02  kxp  1  0  1
kpkp37  tied  factor    222.6662      1.20e+02  5.00e+02  kxp  1  0  1
kpkp38  tied  factor    218.4004      1.20e+02  5.00e+02  kxp  1  0  1
kpkp39  tied  factor    213.2718      1.20e+02  5.00e+02  kxp  1  0  1
kpkp40  tied  factor    220.6057      1.20e+02  5.00e+02  kxp  1  0  1
kpkp41  tied  factor    218.3620      1.20e+02  5.00e+02  kxp  1  0  1
kpkp42  tied  factor    214.2271      1.20e+02  5.00e+02  kxp  1  0  1
kpkp43  tied  factor    231.2629      1.20e+02  5.00e+02  kxp  1  0  1
kpkp44  tied  factor    209.5357      1.20e+02  5.00e+02  kxp  1  0  1
kpkp45  tied  factor    224.8107      1.20e+02  5.00e+02  kxp  1  0  1
kpkp46  tied  factor    228.9699      1.20e+02  5.00e+02  kxp  1  0  1
kpkp47  tied  factor    223.7344      1.20e+02  5.00e+02  kxp  1  0  1
kpkp48  tied  factor    225.3647      1.20e+02  5.00e+02  kxp  1  0  1
kpkp49  tied  factor    225.3743      1.20e+02  5.00e+02  kxp  1  0  1
kpkp50  tied  factor    212.0571      1.20e+02  5.00e+02  kxp  1  0  1
kpkp51  tied  factor    206.2442      1.20e+02  5.00e+02  kxp  1  0  1
kpkp52  tied  factor    233.5251      1.20e+02  5.00e+02  kxp  1  0  1
kpkp53  tied  factor    215.8987      1.20e+02  5.00e+02  kxp  1  0  1
kpkp54  tied  factor    219.7660      1.20e+02  5.00e+02  kxp  1  0  1
kpkp55  tied  factor    220.0416      1.20e+02  5.00e+02  kxp  1  0  1
kpkp56  tied  factor    219.5079      1.20e+02  5.00e+02  kxp  1  0  1
kpkp57  tied  factor    228.8093      1.20e+02  5.00e+02  kxp  1  0  1
kpkp58  tied  factor    224.9919      1.20e+02  5.00e+02  kxp  1  0  1
kpkp59  tied  factor    224.0044      1.20e+02  5.00e+02  kxp  1  0  1
kpkp60  tied  factor    230.4915      1.20e+02  5.00e+02  kxp  1  0  1
kpkp61  tied  factor    215.0015      1.20e+02  5.00e+02  kxp  1  0  1
kpkp62  tied  factor    223.1562      1.20e+02  5.00e+02  kxp  1  0  1
kpkp63  tied  factor    226.3421      1.20e+02  5.00e+02  kxp  1  0  1
kpkp64  tied  factor    227.4098      1.20e+02  5.00e+02  kxp  1  0  1
kpkp65  tied  factor    213.3844      1.20e+02  5.00e+02  kxp  1  0  1
kpkp66  tied  factor    220.2454      1.20e+02  5.00e+02  kxp  1  0  1
kpkp67  tied  factor    272.3346      1.20e+02  5.00e+02  kxp  1  0  1
kpkp68  tied  factor    234.9071      1.20e+02  5.00e+02  kxp  1  0  1
kpkp69  tied  factor    220.4724      1.20e+02  5.00e+02  kxp  1  0  1
kpkp70  tied  factor    207.8784      1.20e+02  5.00e+02  kxp  1  0  1
kpkp71  tied  factor    213.3927      1.20e+02  5.00e+02  kxp  1  0  1
kpkp72  tied  factor    219.6402      1.20e+02  5.00e+02  kxp  1  0  1
kpkp73  tied  factor    217.7837      1.20e+02  5.00e+02  kxp  1  0  1
kpkp74  tied  factor    213.2801      1.20e+02  5.00e+02  kxp  1  0  1
kpkp75  tied  factor    219.4315      1.20e+02  5.00e+02  kxp  1  0  1
kpkp76  tied  factor    217.9129      1.20e+02  5.00e+02  kxp  1  0  1
kpkp77  tied  factor    226.3743      1.20e+02  5.00e+02  kxp  1  0  1
kpkp78  tied  factor    259.0056      1.20e+02  5.00e+02  kxp  1  0  1
kpkp79  tied  factor    274.0763      1.20e+02  5.00e+02  kxp  1  0  1
kpkp80  tied  factor    210.7747      1.20e+02  5.00e+02  kxp  1  0  1
kpkp81  tied  factor    219.3833      1.20e+02  5.00e+02  kxp  1  0  1
kpkp82  tied  factor    226.4845      1.20e+02  5.00e+02  kxp  1  0  1
kpkp83  tied  factor    209.5811      1.20e+02  5.00e+02  kxp  1  0  1
kpkp84  tied  factor    222.6196      1.20e+02  5.00e+02  kxp  1  0  1
kpkp85  tied  factor    223.9248      1.20e+02  5.00e+02  kxp  1  0  1
kpkp86  tied  factor    225.2675      1.20e+02  5.00e+02  kxp  1  0  1
kpkp87  tied  factor    213.9872      1.20e+02  5.00e+02  kxp  1  0  1
kpkp88  tied  factor    223.2665      1.20e+02  5.00e+02  kxp  1  0  1
kpkp89  tied  factor    225.1914      1.20e+02  5.00e+02  kxp  1  0  1
kpkp90  tied  factor    206.7453      1.20e+02  5.00e+02  kxp  1  0  1
kpkp91  tied  factor    234.0155      1.20e+02  5.00e+02  kxp  1  0  1
kpkp92  tied  factor    244.1468      1.20e+02  5.00e+02  kxp  1  0  1
kpkp93  tied  factor    230.2704      1.20e+02  5.00e+02  kxp  1  0  1
kpkp94  tied  factor    216.4503      1.20e+02  5.00e+02  kxp  1  0  1
kpkp95  tied  factor    221.6827      1.20e+02  5.00e+02  kxp  1  0  1
kpkp96  tied  factor    208.2119      1.20e+02  5.00e+02  kxp  1  0  1
kpkp97  tied  factor    219.8008      1.20e+02  5.00e+02  kxp  1  0  1
kpkp98  tied  factor    216.8209      1.20e+02  5.00e+02  kxp  1  0  1
kpkp99  tied  factor    225.0557      1.20e+02  5.00e+02  kxp  1  0  1
kpkp100  tied  factor    225.4486      1.20e+02  5.00e+02  kxp  1  0  1
kpkp101  tied  factor    216.6105      1.20e+02  5.00e+02  kxp  1  0  1
kpkp102  tied  factor    222.0406      1.20e+02  5.00e+02  kxp  1  0  1
kpkp103  tied  factor    215.1505      1.20e+02  5.00e+02  kxp  1  0  1
kpkp104  tied  factor    213.7060      1.20e+02  5.00e+02  kxp  1  0  1
kpkp105  tied  factor    235.4192      1.20e+02  5.00e+02  kxp  1  0  1
kpkp106  tied  factor    230.3665      1.20e+02  5.00e+02  kxp  1  0  1
kpkp107  tied  factor    220.4675      1.20e+02  5.00e+02  kxp  1  0  1
kpkp108  tied  factor    223.5303      1.20e+02  5.00e+02  kxp  1  0  1
kpkp109  tied  factor    217.0424      1.20e+02  5.00e+02  kxp  1  0  1
kpkp110  tied  factor    221.7577      1.20e+02  5.00e+02  kxp  1  0  1
kpkp111  tied  factor    225.4882      1.20e+02  5.00e+02  kxp  1  0  1
kpkp112  tied  factor    225.9168      1.20e+02  5.00e+02  kxp  1  0  1
kpkp113  tied  factor    216.8617      1.20e+02  5.00e+02  kxp  1  0  1
kpkp114  tied  factor    215.4134      1.20e+02  5.00e+02  kxp  1  0  1
kpkp115  tied  factor    224.4164      1.20e+02  5.00e+02  kxp  1  0  1
kpkp116  tied  factor    209.3847      1.20e+02  5.00e+02  kxp  1  0  1
kpkp117  tied  factor    224.2827      1.20e+02  5.00e+02  kxp  1  0  1
kpkp118  tied  factor    233.6195      1.20e+02  5.00e+02  kxp  1  0  1
kpkp119  tied  factor    231.5544      1.20e+02  5.00e+02  kxp  1  0  1
kpkp120  tied  factor    226.7025      1.20e+02  5.00e+02  kxp  1  0  1
kpkp121  tied  factor    218.5355      1.20e+02  5.00e+02  kxp  1  0  1
kpkp122  tied  factor    227.2763      1.20e+02  5.00e+02  kxp  1  0  1
kpkp123  tied  factor    214.5561      1.20e+02  5.00e+02  kxp  1  0  1
kpkp124  tied  factor    227.9146      1.20e+02  5.00e+02  kxp  1  0  1
kpkp125  tied  factor    222.6100      1.20e+02  5.00e+02  kxp  1  0  1
kpkp126  tied  factor    220.7942      1.20e+02  5.00e+02  kxp  1  0  1
kpkp127  tied  factor    224.5103      1.20e+02  5.00e+02  kxp  1  0  1
kpkp128  tied  factor    226.3728      1.20e+02  5.00e+02  kxp  1  0  1
kpkp129  tied  factor    235.5480      1.20e+02  5.00e+02  kxp  1  0  1
kpkp130  tied  factor    230.0134      1.20e+02  5.00e+02  kxp  1  0  1
kpkp131  tied  factor    217.7741      1.20e+02  5.00e+02  kxp  1  0  1
kpkp132  tied  factor    221.7135      1.20e+02  5.00e+02  kxp  1  0  1
kpkp133  tied  factor    237.7123      1.20e+02  5.00e+02  kxp  1  0  1
kpkp134  tied  factor    226.5045      1.20e+02  5.00e+02  kxp  1  0  1
kpkp135  tied  factor    221.2972      1.20e+02  5.00e+02  kxp  1  0  1
kpkp136  tied  factor    228.7243      1.20e+02  5.00e+02  kxp  1  0  1
kpkp137  tied  factor    218.0262      1.20e+02  5.00e+02  kxp  1  0  1
kpkp138  tied  factor    225.6295      1.20e+02  5.00e+02  kxp  1  0  1
kpkp139  tied  factor    214.0881      1.20e+02  5.00e+02  kxp  1  0  1
kpkp140  tied  factor    220.7291      1.20e+02  5.00e+02  kxp  1  0  1
kpkp141  tied  factor    231.7861      1.20e+02  5.00e+02  kxp  1  0  1
kpkp142  tied  factor    216.4080      1.20e+02  5.00e+02  kxp  1  0  1
kpkp143  tied  factor    219.7917      1.20e+02  5.00e+02  kxp  1  0  1
kpkp144  tied  factor    220.0447      1.20e+02  5.00e+02  kxp  1  0  1
kpkp145  tied  factor    228.9766      1.20e+02  5.00e+02  kxp  1  0  1
kpkp146  tied  factor    224.5179      1.20e+02  5.00e+02  kxp  1  0  1
kpkp147  tied  factor    233.9723      1.20e+02  5.00e+02  kxp  1  0  1
kpkp148  tied  factor    240.3990      1.20e+02  5.00e+02  kxp  1  0  1
kpkp149  tied  factor    219.6668      1.20e+02  5.00e+02  kxp  1  0  1
kpkp150  tied  factor    230.8417      1.20e+02  5.00e+02  kxp  1  0  1
kpkp151  tied  factor    215.7014      1.20e+02  5.00e+02  kxp  1  0  1
kpkp152  tied  factor    215.7829      1.20e+02  5.00e+02  kxp  1  0  1
kpkp153  tied  factor    217.5224      1.20e+02  5.00e+02  kxp  1  0  1
kpkp154  tied  factor    225.6350      1.20e+02  5.00e+02  kxp  1  0  1
kpkp155  tied  factor    240.9710      1.20e+02  5.00e+02  kxp  1  0  1
kpkp156  tied  factor    216.3641      1.20e+02  5.00e+02  kxp  1  0  1
kpkp157  tied  factor    233.0762      1.20e+02  5.00e+02  kxp  1  0  1
kpkp158  tied  factor    220.2177      1.20e+02  5.00e+02  kxp  1  0  1
kpkp159  tied  factor    218.2379      1.20e+02  5.00e+02  kxp  1  0  1
kpkp160  tied  factor    214.7446      1.20e+02  5.00e+02  kxp  1  0  1
kpkp161  tied  factor    244.1592      1.20e+02  5.00e+02  kxp  1  0  1
kpkp162  tied  factor    217.9758      1.20e+02  5.00e+02  kxp  1  0  1
kpkp163  tied  factor    223.9397      1.20e+02  5.00e+02  kxp  1  0  1
kpkp164  tied  factor    226.1829      1.20e+02  5.00e+02  kxp  1  0  1
kpkp165  tied  factor    227.1446      1.20e+02  5.00e+02  kxp  1  0  1
kpkp166  tied  factor    217.2752      1.20e+02  5.00e+02  kxp  1  0  1
kpkp167  tied  factor    216.9877      1.20e+02  5.00e+02  kxp  1  0  1
kpkp168  tied  factor    217.9164      1.20e+02  5.00e+02  kxp  1  0  1
kpkp169  tied  factor    211.5343      1.20e+02  5.00e+02  kxp  1  0  1
kpkp170  tied  factor    217.3246      1.20e+02  5.00e+02  kxp  1  0  1
kpkp171  tied  factor    185.9342      1.20e+02  5.00e+02  kxp  1  0  1
kpkp172  tied  factor    215.5695      1.20e+02  5.00e+02  kxp  1  0  1
kpkp173  tied  factor    205.9605      1.20e+02  5.00e+02  kxp  1  0  1
kpkp174  tied  factor    237.5313      1.20e+02  5.00e+02  kxp  1  0  1
kpkp175  tied  factor    226.6306      1.20e+02  5.00e+02  kxp  1  0  1
kpkp176  tied  factor    353.0317      1.20e+02  5.00e+02  kxp  1  0  1
kpkp177  tied  factor    232.2315      1.20e+02  5.00e+02  kxp  1  0  1
kpkp178  tied  factor    214.3882      1.20e+02  5.00e+02  kxp  1  0  1
kpkp179  tied  factor    217.0889      1.20e+02  5.00e+02  kxp  1  0  1
kpkp180  tied  factor    226.3760      1.20e+02  5.00e+02  kxp  1  0  1
kpkp181  tied  factor    216.4415      1.20e+02  5.00e+02  kxp  1  0  1
kpkp182  tied  factor    301.6697      1.20e+02  5.00e+02  kxp  1  0  1
kpkp183  tied  factor    222.5885      1.20e+02  5.00e+02  kxp  1  0  1
kpkp184  tied  factor    224.8126      1.20e+02  5.00e+02  kxp  1  0  1
kpkp185  tied  factor    200.7745      1.20e+02  5.00e+02  kxp  1  0  1
kpkp186  tied  factor    200.3013      1.20e+02  5.00e+02  kxp  1  0  1
kpkp187  tied  factor    220.4046      1.20e+02  5.00e+02  kxp  1  0  1
kpkp188  tied  factor    222.9837      1.20e+02  5.00e+02  kxp  1  0  1
kpkp189  tied  factor    236.6447      1.20e+02  5.00e+02  kxp  1  0  1
kpkp190  tied  factor    200.8656      1.20e+02  5.00e+02  kxp  1  0  1
kpkp191  tied  factor    225.9315      1.20e+02  5.00e+02  kxp  1  0  1
kpkp192  tied  factor    231.9248      1.20e+02  5.00e+02  kxp  1  0  1
kpkp193  tied  factor    227.0230      1.20e+02  5.00e+02  kxp  1  0  1
kpkp194  tied  factor    207.2882      1.20e+02  5.00e+02  kxp  1  0  1
kpkp195  tied  factor    354.2094      1.20e+02  5.00e+02  kxp  1  0  1
kpkp196  tied  factor    218.7768      1.20e+02  5.00e+02  kxp  1  0  1
kpkp197  tied  factor    223.4546      1.20e+02  5.00e+02  kxp  1  0  1
kpkp198  tied  factor    292.9936      1.20e+02  5.00e+02  kxp  1  0  1
kpkp199  tied  factor    224.8135      1.20e+02  5.00e+02  kxp  1  0  1
kpkp200  tied  factor    208.7513      1.20e+02  5.00e+02  kxp  1  0  1
kpkp201  tied  factor    212.0539      1.20e+02  5.00e+02  kxp  1  0  1
kpkp202  tied  factor    226.9863      1.20e+02  5.00e+02  kxp  1  0  1
kpkp203  tied  factor    236.4774      1.20e+02  5.00e+02  kxp  1  0  1
kpkp204  tied  factor    226.9775      1.20e+02  5.00e+02  kxp  1  0  1
kpkp205  tied  factor    222.3988      1.20e+02  5.00e+02  kxp  1  0  1
kpkp206  tied  factor    249.6908      1.20e+02  5.00e+02  kxp  1  0  1
kpkp207  tied  factor    245.0100      1.20e+02  5.00e+02  kxp  1  0  1
kpkp208  tied  factor    229.9512      1.20e+02  5.00e+02  kxp  1  0  1
kpkp209  tied  factor    216.3257      1.20e+02  5.00e+02  kxp  1  0  1
kpkp210  tied  factor    227.0675      1.20e+02  5.00e+02  kxp  1  0  1
kpkp211  tied  factor    215.3631      1.20e+02  5.00e+02  kxp  1  0  1
kpkp212  tied  factor    227.5629      1.20e+02  5.00e+02  kxp  1  0  1
kpkp213  tied  factor    221.1581      1.20e+02  5.00e+02  kxp  1  0  1
kpkp214  tied  factor    239.5048      1.20e+02  5.00e+02  kxp  1  0  1
kpkp215  tied  factor    220.1932      1.20e+02  5.00e+02  kxp  1  0  1
kpkp216  tied  factor    216.4325      1.20e+02  5.00e+02  kxp  1  0  1
kpkp217  tied  factor    225.7293      1.20e+02  5.00e+02  kxp  1  0  1
kpkp218  tied  factor    229.0719      1.20e+02  5.00e+02  kxp  1  0  1
kpkp219  tied  factor    218.4150      1.20e+02  5.00e+02  kxp  1  0  1
kpkp220  tied  factor    222.9470      1.20e+02  5.00e+02  kxp  1  0  1
kpkp221  tied  factor    236.9169      1.20e+02  5.00e+02  kxp  1  0  1
kpkp222  tied  factor    224.9618      1.20e+02  5.00e+02  kxp  1  0  1
kpkp223  tied  factor    233.6797      1.20e+02  5.00e+02  kxp  1  0  1
kpkp224  tied  factor    232.3029      1.20e+02  5.00e+02  kxp  1  0  1
kpkp225  tied  factor    221.1969      1.20e+02  5.00e+02  kxp  1  0  1
kpkp226  tied  factor    231.9237      1.20e+02  5.00e+02  kxp  1  0  1
kpkp227  tied  factor    250.3901      1.20e+02  5.00e+02  kxp  1  0  1
kpkp228  tied  factor    232.7859      1.20e+02  5.00e+02  kxp  1  0  1
kpkp229  tied  factor    225.6159      1.20e+02  5.00e+02  kxp  1  0  1
kpkp230  tied  factor    253.5599      1.20e+02  5.00e+02  kxp  1  0  1
kpkp231  tied  factor    227.4534      1.20e+02  5.00e+02  kxp  1  0  1
kpkp232  tied  factor    223.5847      1.20e+02  5.00e+02  kxp  1  0  1
kpkp233  tied  factor    215.0521      1.20e+02  5.00e+02  kxp  1  0  1
kpkp234  tied  factor    220.1303      1.20e+02  5.00e+02  kxp  1  0  1
kpkp235  tied  factor    211.1001      1.20e+02  5.00e+02  kxp  1  0  1
kpkp236  tied  factor    242.9496      1.20e+02  5.00e+02  kxp  1  0  1
kpkp237  tied  factor    243.1227      1.20e+02  5.00e+02  kxp  1  0  1
kpkp238  tied  factor    229.8329      1.20e+02  5.00e+02  kxp  1  0  1
kpkp239  tied  factor    232.6444      1.20e+02  5.00e+02  kxp  1  0  1
kpkp240  tied  factor    226.9985      1.20e+02  5.00e+02  kxp  1  0  1
kpkp241  tied  factor    212.5878      1.20e+02  5.00e+02  kxp  1  0  1
kpkp242  tied  factor    255.8288      1.20e+02  5.00e+02  kxp  1  0  1
kpkp243  tied  factor    230.6515      1.20e+02  5.00e+02  kxp  1  0  1
kpkp244  tied  factor    231.1809      1.20e+02  5.00e+02  kxp  1  0  1
kpkp245  tied  factor    233.6548      1.20e+02  5.00e+02  kxp  1  0  1
kpkp246  tied  factor    231.1896      1.20e+02  5.00e+02  kxp  1  0  1
kpkp247  tied  factor    226.1239      1.20e+02  5.00e+02  kxp  1  0  1
kpkp248  tied  factor    228.7155      1.20e+02  5.00e+02  kxp  1  0  1
kpkp249  tied  factor    216.8618      1.20e+02  5.00e+02  kxp  1  0  1
kpkp250  tied  factor    216.4448      1.20e+02  5.00e+02  kxp  1  0  1
kpkp251  tied  factor    227.3941      1.20e+02  5.00e+02  kxp  1  0  1
kpkp252  tied  factor    227.4785      1.20e+02  5.00e+02  kxp  1  0  1
kpkp253  tied  factor    237.3695      1.20e+02  5.00e+02  kxp  1  0  1
kpkp254  tied  factor    234.7393      1.20e+02  5.00e+02  kxp  1  0  1
kpkp255  tied  factor    248.2222      1.20e+02  5.00e+02  kxp  1  0  1
kpkp256  tied  factor    218.7707      1.20e+02  5.00e+02  kxp  1  0  1
kpkp257  tied  factor    220.3147      1.20e+02  5.00e+02  kxp  1  0  1
kpkp258  tied  factor    217.9635      1.20e+02  5.00e+02  kxp  1  0  1
kpkp259  tied  factor    223.8020      1.20e+02  5.00e+02  kxp  1  0  1
kpkp260  tied  factor    216.1269      1.20e+02  5.00e+02  kxp  1  0  1
kpkp261  tied  factor    226.0038      1.20e+02  5.00e+02  kxp  1  0  1
kpkp262  tied  factor    227.9278      1.20e+02  5.00e+02  kxp  1  0  1
kpkp263  tied  factor    225.7167      1.20e+02  5.00e+02  kxp  1  0  1
kpkp264  tied  factor    223.6545      1.20e+02  5.00e+02  kxp  1  0  1
kpkp265  tied  factor    216.1799      1.20e+02  5.00e+02  kxp  1  0  1
kpkp266  tied  factor    226.4099      1.20e+02  5.00e+02  kxp  1  0  1
kpkp267  tied  factor    230.6669      1.20e+02  5.00e+02  kxp  1  0  1
kpkp268  tied  factor    234.9249      1.20e+02  5.00e+02  kxp  1  0  1
kpkp269  tied  factor    237.6628      1.20e+02  5.00e+02  kxp  1  0  1
kpkp270  tied  factor    224.4963      1.20e+02  5.00e+02  kxp  1  0  1
kpkp271  tied  factor    221.3100      1.20e+02  5.00e+02  kxp  1  0  1
kpkp272  tied  factor    228.3615      1.20e+02  5.00e+02  kxp  1  0  1
kpkp273  tied  factor    235.1105      1.20e+02  5.00e+02  kxp  1  0  1
kpkp274  tied  factor    216.4869      1.20e+02  5.00e+02  kxp  1  0  1
kpkp275  tied  factor    219.8048      1.20e+02  5.00e+02  kxp  1  0  1
kpkp276  tied  factor    233.7021      1.20e+02  5.00e+02  kxp  1  0  1
kpkp277  tied  factor    211.6251      1.20e+02  5.00e+02  kxp  1  0  1
kpkp278  tied  factor    218.0783      1.20e+02  5.00e+02  kxp  1  0  1
kpkp279  tied  factor    218.6432      1.20e+02  5.00e+02  kxp  1  0  1
kpkp280  tied  factor    229.4938      1.20e+02  5.00e+02  kxp  1  0  1
kpkp281  tied  factor    242.7437      1.20e+02  5.00e+02  kxp  1  0  1
kpkp282  tied  factor    232.6494      1.20e+02  5.00e+02  kxp  1  0  1
kpkp283  tied  factor    196.3144      1.20e+02  5.00e+02  kxp  1  0  1
kpkp284  tied  factor    218.9836      1.20e+02  5.00e+02  kxp  1  0  1
kpkp285  tied  factor    203.0278      1.20e+02  5.00e+02  kxp  1  0  1
kpkp286  tied  factor    219.5725      1.20e+02  5.00e+02  kxp  1  0  1
kpkp287  tied  factor    240.6286      1.20e+02  5.00e+02  kxp  1  0  1
kpkp288  tied  factor    223.5280      1.20e+02  5.00e+02  kxp  1  0  1
kpkp289  tied  factor    220.3838      1.20e+02  5.00e+02  kxp  1  0  1
kpkp290  tied  factor    229.6494      1.20e+02  5.00e+02  kxp  1  0  1
kpkp291  tied  factor    234.6087      1.20e+02  5.00e+02  kxp  1  0  1
kpkp292  tied  factor    228.9506      1.20e+02  5.00e+02  kxp  1  0  1
kpkp293  tied  factor    224.0648      1.20e+02  5.00e+02  kxp  1  0  1
kpkp294  tied  factor    234.3512      1.20e+02  5.00e+02  kxp  1  0  1
kpkp295  tied  factor    213.4348      1.20e+02  5.00e+02  kxp  1  0  1
kpkp296  tied  factor    210.5052      1.20e+02  5.00e+02  kxp  1  0  1
kpkp297  tied  factor    212.7859      1.20e+02  5.00e+02  kxp  1  0  1
kpkp298  tied  factor    226.2218      1.20e+02  5.00e+02  kxp  1  0  1
kpkp299  tied  factor    231.3603      1.20e+02  5.00e+02  kxp  1  0  1
kpkp300  tied  factor    248.5212      1.20e+02  5.00e+02  kxp  1  0  1
kpkp301  tied  factor    221.4932      1.20e+02  5.00e+02  kxp  1  0  1
kpkp302  tied  factor    208.9602      1.20e+02  5.00e+02  kxp  1  0  1
kpkp303  tied  factor    204.0235      1.20e+02  5.00e+02  kxp  1  0  1
kpkp304  tied  factor    218.5521      1.20e+02  5.00e+02  kxp  1  0  1
kpkp305  tied  factor    223.0350      1.20e+02  5.00e+02  kxp  1  0  1
kpkp306  tied  factor    223.0382      1.20e+02  5.00e+02  kxp  1  0  1
kpkp307  tied  factor    223.5564      1.20e+02  5.00e+02  kxp  1  0  1
kpkp308  tied  factor    210.2135      1.20e+02  5.00e+02  kxp  1  0  1
kpkp309  tied  factor    223.0335      1.20e+02  5.00e+02  kxp  1  0  1
kpkp310  tied  factor    233.7011      1.20e+02  5.00e+02  kxp  1  0  1
kpkp311  tied  factor    240.9452      1.20e+02  5.00e+02  kxp  1  0  1
kpkp312  tied  factor    236.4829      1.20e+02  5.00e+02  kxp  1  0  1
kpkp313  tied  factor    215.1692      1.20e+02  5.00e+02  kxp  1  0  1
kpkp314  tied  factor    209.7058      1.20e+02  5.00e+02  kxp  1  0  1
kpkp315  tied  factor    221.7281      1.20e+02  5.00e+02  kxp  1  0  1
kpkp316  tied  factor    212.6766      1.20e+02  5.00e+02  kxp  1  0  1
kpkp317  tied  factor    228.0392      1.20e+02  5.00e+02  kxp  1  0  1
kpkp318  tied  factor    220.4329      1.20e+02  5.00e+02  kxp  1  0  1
kpkp319  tied  factor    212.7323      1.20e+02  5.00e+02  kxp  1  0  1
kpkp320  tied  factor    200.9119      1.20e+02  5.00e+02  kxp  1  0  1
kpkp321  tied  factor    196.6045      1.20e+02  5.00e+02  kxp  1  0  1
kpkp322  tied  factor    218.1747      1.20e+02  5.00e+02  kxp  1  0  1
kpkp323  tied  factor    221.6818      1.20e+02  5.00e+02  kxp  1  0  1
kpkp324  tied  factor    228.4496      1.20e+02  5.00e+02  kxp  1  0  1
kpkp325  tied  factor    221.9125      1.20e+02  5.00e+02  kxp  1  0  1
kpkp326  tied  factor    233.7747      1.20e+02  5.00e+02  kxp  1  0  1
kpkp327  tied  factor    216.0788      1.20e+02  5.00e+02  kxp  1  0  1
kzkz1  log  factor    6.403942      6.00e+00  5.00e+01  kzp  1  0  1
kzkz2  tied  factor    7.262059      6.00e+00  5.00e+01  kzp  1  0  1
kzkz3  tied  factor    7.544535      6.00e+00  5.00e+01  kzp  1  0  1
kzkz4  tied  factor    6.949707      6.00e+00  5.00e+01  kzp  1  0  1
kzkz5  tied  factor    7.148439      6.00e+00  5.00e+01  kzp  1  0  1
kzkz6  tied  factor    7.099836      6.00e+00  5.00e+01  kzp  1  0  1
kzkz7  tied  factor    7.032177      6.00e+00  5.00e+01  kzp  1  0  1
kzkz8  tied  factor    6.955526      6.00e+00  5.00e+01  kzp  1  0  1
kzkz9  tied  factor    6.942272      6.00e+00  5.00e+01  kzp  1  0  1
kzkz10  tied  factor    6.902681      6.00e+00  5.00e+01  kzp  1  0  1
kzkz11  tied  factor    7.030191      6.00e+00  5.00e+01  kzp  1  0  1
kzkz12  tied  factor    6.909244      6.00e+00  5.00e+01  kzp  1  0  1
kzkz13  tied  factor    6.923199      6.00e+00  5.00e+01  kzp  1  0  1
kzkz14  tied  factor    7.622437      6.00e+00  5.00e+01  kzp  1  0  1
kzkz15  tied  factor    7.041070      6.00e+00  5.00e+01  kzp  1  0  1
kzkz16  tied  factor    6.936180      6.00e+00  5.00e+01  kzp  1  0  1
kzkz17  tied  factor    7.121644      6.00e+00  5.00e+01  kzp  1  0  1
kzkz18  tied  factor    7.132632      6.00e+00  5.00e+01  kzp  1  0  1
kzkz19  tied  factor    7.104162      6.00e+00  5.00e+01  kzp  1  0  1
kzkz20  tied  factor    7.163777      6.00e+00  5.00e+01  kzp  1  0  1
kzkz21  tied  factor    6.981951      6.00e+00  5.00e+01  kzp  1  0  1
kzkz22  tied  factor    6.889006      6.00e+00  5.00e+01  kzp  1  0  1
kzkz23  tied  factor    6.912247      6.00e+00  5.00e+01  kzp  1  0  1
kzkz24  tied  factor    6.947158      6.00e+00  5.00e+01  kzp  1  0  1
kzkz25  tied  factor    6.935234      6.00e+00  5.00e+01  kzp  1  0  1
kzkz26  tied  factor    7.470113      6.00e+00  5.00e+01  kzp  1  0  1
kzkz27  tied  factor    7.094965      6.00e+00  5.00e+01  kzp  1  0  1
kzkz28  tied  factor    6.960616      6.00e+00  5.00e+01  kzp  1  0  1
kzkz29  tied  factor    7.056297      6.00e+00  5.00e+01  kzp  1  0  1
kzkz30  tied  factor    6.937091      6.00e+00  5.00e+01  kzp  1  0  1
kzkz31  tied  factor    6.955155      6.00e+00  5.00e+01  kzp  1  0  1
kzkz32  tied  factor    6.821364      6.00e+00  5.00e+01  kzp  1  0  1
kzkz33  tied  factor    7.191773      6.00e+00  5.00e+01  kzp  1  0  1
kzkz34  tied  factor    7.075065      6.00e+00  5.00e+01  kzp  1  0  1
kzkz35  tied  factor    7.233869      6.00e+00  5.00e+01  kzp  1  0  1
kzkz36  tied  factor    7.063769      6.00e+00  5.00e+01  kzp  1  0  1
kzkz37  tied  factor    6.666946      6.00e+00  5.00e+01  kzp  1  0  1
kzkz38  tied  factor    7.041000      6.00e+00  5.00e+01  kzp  1  0  1
kzkz39  tied  factor    6.755778      6.00e+00  5.00e+01  kzp  1  0  1
kzkz40  tied  factor    6.893726      6.00e+00  5.00e+01  kzp  1  0  1
kzkz41  tied  factor    6.874113      6.00e+00  5.00e+01  kzp  1  0  1
kzkz42  tied  factor    7.389096      6.00e+00  5.00e+01  kzp  1  0  1
kzkz43  tied  factor    7.106621      6.00e+00  5.00e+01  kzp  1  0  1
kzkz44  tied  factor    6.977102      6.00e+00  5.00e+01  kzp  1  0  1
kzkz45  tied  factor    7.218235      6.00e+00  5.00e+01  kzp  1  0  1
kzkz46  tied  factor    7.419611      6.00e+00  5.00e+01  kzp  1  0  1
kzkz47  tied  factor    7.089504      6.00e+00  5.00e+01  kzp  1  0  1
kzkz48  tied  factor    6.963987      6.00e+00  5.00e+01  kzp  1  0  1
kzkz49  tied  factor    7.046492      6.00e+00  5.00e+01  kzp  1  0  1