pcf
* control data
restart estimation
     679     100       6     0      12
4  2  single  point  1  0  0
2.000000e+001  -3.000000e+000  3.000000e-001  1.000000e-002 -7 999 lamforgive
1.000000e+001  1.000000e+001  1.000000e-003
1.000000e-001 1 noaui noboundscale
20 1.000000e-002  3  3  1.000000e-002  3
0  0  0   PARSAVEITN
* singular value decomposition
  1
  679  5.000000e-007
  1
* parameter groups
Kxp     relative   1.000000e-002  0.000000e+000  switch  2.000000e+000  parabolic 1.0e-5 0.5 smaller
Kzp     relative   1.000000e-002  0.000000e+000  switch  2.000000e+000  parabolic 1.0e-5 0.5 smaller
Kx     relative   1.000000e-002  0.000000e+000  switch  2.000000e+000  parabolic 1.0e-5 0.5 smaller
Kz     relative   1.000000e-002  0.000000e+000  switch  2.000000e+000  parabolic 1.0e-5 0.5 smaller
Rch relative   1.000000e-002  0.000000e+000  switch  2.000000e+000  parabolic 1.0e-5 0.5 smaller
KM relative   1.000000e-002  0.000000e+000  switch  2.000000e+000  parabolic 1.0e-5 0.5 smaller
* parameter data
rm1 log factor 1.000 0.25 5.0 Rch 1 0 1
Kx1 log factor 20.0 1.0 50.0 Kx 1 0 1
Kx2 log factor 25.0 1.0 50.0 Kx 1 0 1
Kx21 log factor 25.0 1.0 50.0 Kx 1 0 1
Kx3 log factor 25.0 1.0 50.0 Kx 1 0 1
Kx4 log factor 1.0 0.1 10.0 Kx 1 0 1
Kx5 log factor 33.0 1.0 50.0 Kx 1 0 1
Kx6 log factor 15.0 1.0 50.0 Kx 1 0 1
Kx8 log factor 1.0 0.1 10.0 Kx 1 0 1
Kx81 log factor 1.0 0.1 10.0 Kx 1 0 1
Kx13 log factor 200.0 40.0 250.0 Kx 1 0 1
Kx14 log factor 35.0 20.0 80.0 Kx 1 0 1
Kx15 log factor 35.0 20.0 80.0 Kx 1 0 1
Kz1 log factor 2.0 0.10 5.0 Kz 1 0 1
Kz2 log factor 2.50 0.10 5.0  Kz 1 0 1
Kz21 log factor 2.50 0.10 5.0  Kz 1 0 1
Kz3 log factor 2.50 0.10 5.0  Kz 1 0 1
Kz4 log factor 0.10 0.01 1.0 Kz 1 0 1
Kz5 log factor 33.0 1.0 50.0 Kz 1 0 1
Kz6 log factor 15.0 1.0 50.0 Kz 1 0 1
Kz8 log factor 1.0 0.1 10.0 Kz 1 0 1
Kz81 log factor 1.0 0.1 10.0 Kz 1 0 1
Kz13 log factor 10 3.0 130.0 Kz 1 0 1
Kz14 log factor 3.50 2.0 8.0 Kz 1 0 1
Kz15 log factor 3.50 2.0 8.0 Kz 1 0 1
KpKp1  log  factor  2.0E+02  1.20E+02  5.00E+02  Kxp  1  0  1
KpKp2  tied  factor  1.80E+02  1.20E+02  5.00E+02  Kxp  1  0  1
KpKp3  tied  factor  1.80E+02  1.20E+02  5.00E+02  Kxp  1  0  1
KpKp4  tied  factor  1.80E+02  1.20E+02  5.00E+02  Kxp  1  0  1
KpKp5  tied  factor  1.80E+02  1.20E+02  5.00E+02  Kxp  1  0  1
KpKp6  tied  factor  1.80E+02  1.20E+02  5.00E+02  Kxp  1  0  1
KpKp7  tied  factor  1.80E+02  1.20E+02  5.00E+02  Kxp  1  0  1
KpKp8  tied  factor  1.80E+02  1.20E+02  5.00E+02  Kxp  1  0  1
KpKp9  tied  factor  1.80E+02  1.20E+02  5.00E+02  Kxp  1  0  1
KpKp10  tied  factor  1.80E+02  1.20E+02  5.00E+02  Kxp  1  0  1
KpKp11  tied  factor  1.80E+02  1.20E+02  5.00E+02  Kxp  1  0  1
KpKp12  tied  factor  1.80E+02  1.20E+02  5.00E+02  Kxp  1  0  1
KpKp13  tied  factor  1.80E+02  1.20E+02  5.00E+02  Kxp  1  0  1
KpKp14  tied  factor  1.80E+02  1.20E+02  5.00E+02  Kxp  1  0  1
KpKp15  tied  factor  1.80E+02  1.20E+02  5.00E+02  Kxp  1  0  1
KpKp16  tied  factor  1.80E+02  1.20E+02  5.00E+02  Kxp  1  0  1
KpKp17  tied  factor  1.80E+02  1.20E+02  5.00E+02  Kxp  1  0  1
KpKp18  tied  factor  1.80E+02  1.20E+02  5.00E+02  Kxp  1  0  1
KpKp19  tied  factor  1.80E+02  1.20E+02  5.00E+02  Kxp  1  0  1
KpKp20  tied  factor  1.80E+02  1.20E+02  5.00E+02  Kxp  1  0  1
KpKp21  tied  factor  1.80E+02  1.20E+02  5.00E+02  Kxp  1  0  1
KpKp22  tied  factor  1.80E+02  1.20E+02  5.00E+02  Kxp  1  0  1
KpKp23  tied  factor  1.80E+02  1.20E+02  5.00E+02  Kxp  1  0  1
KpKp24  tied  factor  1.80E+02  1.20E+02  5.00E+02  Kxp  1  0  1
KpKp25  tied  factor  1.80E+02  1.20E+02  5.00E+02  Kxp  1  0  1
KpKp26  tied  factor  1.80E+02  1.20E+02  5.00E+02  Kxp  1  0  1
KpKp27  tied  factor  1.80E+02  1.20E+02  5.00E+02  Kxp  1  0  1
KpKp28  tied  factor  1.80E+02  1.20E+02  5.00E+02  Kxp  1  0  1
KpKp29  tied  factor  1.80E+02  1.20E+02  5.00E+02  Kxp  1  0  1
KpKp30  tied  factor  1.80E+02  1.20E+02  5.00E+02  Kxp  1  0  1
KpKp31  tied  factor  1.80E+02  1.20E+02  5.00E+02  Kxp  1  0  1
KpKp32  tied  factor  1.80E+02  1.20E+02  5.00E+02  Kxp  1  0  1
KpKp33  tied  factor  1.80E+02  1.20E+02  5.00E+02  Kxp  1  0  1
KpKp34  tied  factor  1.80E+02  1.20E+02  5.00E+02  Kxp  1  0  1
KpKp35  tied  factor  1.80E+02  1.20E+02  5.00E+02  Kxp  1  0  1
KpKp36  tied  factor  1.80E+02  1.20E+02  5.00E+02  Kxp  1  0  1
KpKp37  tied  factor  1.80E+02  1.20E+02  5.00E+02  Kxp  1  0  1
KpKp38  tied  factor  1.80E+02  1.20E+02  5.00E+02  Kxp  1  0  1
KpKp39  tied  factor  1.80E+02  1.20E+02  5.00E+02  Kxp  1  0  1
KpKp40  tied  factor  1.80E+02  1.20E+02  5.00E+02  Kxp  1  0  1
KpKp41  tied  factor  1.80E+02  1.20E+02  5.00E+02  Kxp  1  0  1
KpKp42  tied  factor  1.80E+02  1.20E+02  5.00E+02  Kxp  1  0  1
KpKp43  tied  factor  1.80E+02  1.20E+02  5.00E+02  Kxp  1  0  1
KpKp44  tied  factor  1.80E+02  1.20E+02  5.00E+02  Kxp  1  0  1
KpKp45  tied  factor  1.80E+02  1.20E+02  5.00E+02  Kxp  1  0  1
KpKp46  tied  factor  1.80E+02  1.20E+02  5.00E+02  Kxp  1  0  1
KpKp47  tied  factor  1.80E+02  1.20E+02  5.00E+02  Kxp  1  0  1
KpKp48  tied  factor  1.80E+02  1.20E+02  5.00E+02  Kxp  1  0  1
KpKp49  tied  factor  1.80E+02  1.20E+02  5.00E+02  Kxp  1  0  1
KpKp50  tied  factor  1.80E+02  1.20E+02  5.00E+02  Kxp  1  0  1
KpKp51  tied  factor  1.80E+02  1.20E+02  5.00E+02  Kxp  1  0  1
KpKp52  tied  factor  1.80E+02  1.20E+02  5.00E+02  Kxp  1  0  1
KpKp53  tied  factor  1.80E+02  1.20E+02  5.00E+02  Kxp  1  0  1
KpKp54  tied  factor  1.80E+02  1.20E+02  5.00E+02  Kxp  1  0  1
KpKp55  tied  factor  1.80E+02  1.20E+02  5.00E+02  Kxp  1  0  1
KpKp56  tied  factor  1.80E+02  1.20E+02  5.00E+02  Kxp  1  0  1
KpKp57  tied  factor  1.80E+02  1.20E+02  5.00E+02  Kxp  1  0  1
KpKp58  tied  factor  1.80E+02  1.20E+02  5.00E+02  Kxp  1  0  1
KpKp59  tied  factor  1.80E+02  1.20E+02  5.00E+02  Kxp  1  0  1
KpKp60  tied  factor  1.80E+02  1.20E+02  5.00E+02  Kxp  1  0  1
KpKp61  tied  factor  1.80E+02  1.20E+02  5.00E+02  Kxp  1  0  1
KpKp62  tied  factor  1.80E+02  1.20E+02  5.00E+02  Kxp  1  0  1
KpKp63  tied  factor  1.80E+02  1.20E+02  5.00E+02  Kxp  1  0  1
KpKp64  tied  factor  1.80E+02  1.20E+02  5.00E+02  Kxp  1  0  1
KpKp65  tied  factor  1.80E+02  1.20E+02  5.00E+02  Kxp  1  0  1
KpKp66  tied  factor  1.80E+02  1.20E+02  5.00E+02  Kxp  1  0  1
KpKp67  tied  factor  1.80E+02  1.20E+02  5.00E+02  Kxp  1  0  1
KpKp68  tied  factor  1.80E+02  1.20E+02  5.00E+02  Kxp  1  0  1
KpKp69  tied  factor  1.80E+02  1.20E+02  5.00E+02  Kxp  1  0  1
KpKp70  tied  factor  1.80E+02  1.20E+02  5.00E+02  Kxp  1  0  1
KpKp71  tied  factor  1.80E+02  1.20E+02  5.00E+02  Kxp  1  0  1
KpKp72  tied  factor  1.80E+02  1.20E+02  5.00E+02  Kxp  1  0  1
KpKp73  tied  factor  1.80E+02  1.20E+02  5.00E+02  Kxp  1  0  1
KpKp74  tied  factor  1.80E+02  1.20E+02  5.00E+02  Kxp  1  0  1
KpKp75  tied  factor  1.80E+02  1.20E+02  5.00E+02  Kxp  1  0  1
KpKp76  tied  factor  1.80E+02  1.20E+02  5.00E+02  Kxp  1  0  1
KpKp77  tied  factor  1.80E+02  1.20E+02  5.00E+02  Kxp  1  0  1
KpKp78  tied  factor  1.80E+02  1.20E+02  5.00E+02  Kxp  1  0  1
KpKp79  tied  factor  1.80E+02  1.20E+02  5.00E+02  Kxp  1  0  1
KpKp80  tied  factor  1.80E+02  1.20E+02  5.00E+02  Kxp  1  0  1
KpKp81  tied  factor  1.80E+02  1.20E+02  5.00E+02  Kxp  1  0  1
KpKp82  tied  factor  1.80E+02  1.20E+02  5.00E+02  Kxp  1  0  1
KpKp83  tied  factor  1.80E+02  1.20E+02  5.00E+02  Kxp  1  0  1
KpKp84  tied  factor  1.80E+02  1.20E+02  5.00E+02  Kxp  1  0  1
KpKp85  tied  factor  1.80E+02  1.20E+02  5.00E+02  Kxp  1  0  1
KpKp86  tied  factor  1.80E+02  1.20E+02  5.00E+02  Kxp  1  0  1
KpKp87  tied  factor  1.80E+02  1.20E+02  5.00E+02  Kxp  1  0  1
KpKp88  tied  factor  1.80E+02  1.20E+02  5.00E+02  Kxp  1  0  1
KpKp89  tied  factor  1.80E+02  1.20E+02  5.00E+02  Kxp  1  0  1
KpKp90  tied  factor  1.80E+02  1.20E+02  5.00E+02  Kxp  1  0  1
KpKp91  tied  factor  1.80E+02  1.20E+02  5.00E+02  Kxp  1  0  1
KpKp92  tied  factor  1.80E+02  1.20E+02  5.00E+02  Kxp  1  0  1
KpKp93  tied  factor  1.80E+02  1.20E+02  5.00E+02  Kxp  1  0  1
KpKp94  tied  factor  1.80E+02  1.20E+02  5.00E+02  Kxp  1  0  1
KpKp95  tied  factor  1.80E+02  1.20E+02  5.00E+02  Kxp  1  0  1
KpKp96  tied  factor  1.80E+02  1.20E+02  5.00E+02  Kxp  1  0  1
KpKp97  tied  factor  1.80E+02  1.20E+02  5.00E+02  Kxp  1  0  1
KpKp98  tied  factor  1.80E+02  1.20E+02  5.00E+02  Kxp  1  0  1
KpKp99  tied  factor  1.80E+02  1.20E+02  5.00E+02  Kxp  1  0  1
KpKp100  tied  factor  1.80E+02  1.20E+02  5.00E+02  Kxp  1  0  1
KpKp101  tied  factor  1.80E+02  1.20E+02  5.00E+02  Kxp  1  0  1
KpKp102  tied  factor  1.80E+02  1.20E+02  5.00E+02  Kxp  1  0  1
KpKp103  tied  factor  1.80E+02  1.20E+02  5.00E+02  Kxp  1  0  1
KpKp104  tied  factor  1.80E+02  1.20E+02  5.00E+02  Kxp  1  0  1
KpKp105  tied  factor  1.80E+02  1.20E+02  5.00E+02  Kxp  1  0  1
KpKp106  tied  factor  1.80E+02  1.20E+02  5.00E+02  Kxp  1  0  1
KpKp107  tied  factor  1.80E+02  1.20E+02  5.00E+02  Kxp  1  0  1
KpKp108  tied  factor  1.80E+02  1.20E+02  5.00E+02  Kxp  1  0  1
KpKp109  tied  factor  1.80E+02  1.20E+02  5.00E+02  Kxp  1  0  1
KpKp110  tied  factor  1.80E+02  1.20E+02  5.00E+02  Kxp  1  0  1
KpKp111  tied  factor  1.80E+02  1.20E+02  5.00E+02  Kxp  1  0  1
KpKp112  tied  factor  1.80E+02  1.20E+02  5.00E+02  Kxp  1  0  1
KpKp113  tied  factor  1.80E+02  1.20E+02  5.00E+02  Kxp  1  0  1
KpKp114  tied  factor  1.80E+02  1.20E+02  5.00E+02  Kxp  1  0  1
KpKp115  tied  factor  1.80E+02  1.20E+02  5.00E+02  Kxp  1  0  1
KpKp116  tied  factor  1.80E+02  1.20E+02  5.00E+02  Kxp  1  0  1
KpKp117  tied  factor  1.80E+02  1.20E+02  5.00E+02  Kxp  1  0  1
KpKp118  tied  factor  1.80E+02  1.20E+02  5.00E+02  Kxp  1  0  1
KpKp119  tied  factor  1.80E+02  1.20E+02  5.00E+02  Kxp  1  0  1
KpKp120  tied  factor  1.80E+02  1.20E+02  5.00E+02  Kxp  1  0  1
KpKp121  tied  factor  1.80E+02  1.20E+02  5.00E+02  Kxp  1  0  1
KpKp122  tied  factor  1.80E+02  1.20E+02  5.00E+02  Kxp  1  0  1
KpKp123  tied  factor  1.80E+02  1.20E+02  5.00E+02  Kxp  1  0  1
KpKp124  tied  factor  1.80E+02  1.20E+02  5.00E+02  Kxp  1  0  1
KpKp125  tied  factor  1.80E+02  1.20E+02  5.00E+02  Kxp  1  0  1
KpKp126  tied  factor  1.80E+02  1.20E+02  5.00E+02  Kxp  1  0  1
KpKp127  tied  factor  1.80E+02  1.20E+02  5.00E+02  Kxp  1  0  1
KpKp128  tied  factor  1.80E+02  1.20E+02  5.00E+02  Kxp  1  0  1
KpKp129  tied  factor  1.80E+02  1.20E+02  5.00E+02  Kxp  1  0  1
KpKp130  tied  factor  1.80E+02  1.20E+02  5.00E+02  Kxp  1  0  1
KpKp131  tied  factor  1.80E+02  1.20E+02  5.00E+02  Kxp  1  0  1
KpKp132  tied  factor  1.80E+02  1.20E+02  5.00E+02  Kxp  1  0  1
KpKp133  tied  factor  1.80E+02  1.20E+02  5.00E+02  Kxp  1  0  1
KpKp134  tied  factor  1.80E+02  1.20E+02  5.00E+02  Kxp  1  0  1
KpKp135  tied  factor  1.80E+02  1.20E+02  5.00E+02  Kxp  1  0  1
KpKp136  tied  factor  1.80E+02  1.20E+02  5.00E+02  Kxp  1  0  1
KpKp137  tied  factor  1.80E+02  1.20E+02  5.00E+02  Kxp  1  0  1
KpKp138  tied  factor  1.80E+02  1.20E+02  5.00E+02  Kxp  1  0  1
KpKp139  tied  factor  1.80E+02  1.20E+02  5.00E+02  Kxp  1  0  1
KpKp140  tied  factor  1.80E+02  1.20E+02  5.00E+02  Kxp  1  0  1
KpKp141  tied  factor  1.80E+02  1.20E+02  5.00E+02  Kxp  1  0  1
KpKp142  tied  factor  1.80E+02  1.20E+02  5.00E+02  Kxp  1  0  1
KpKp143  tied  factor  1.80E+02  1.20E+02  5.00E+02  Kxp  1  0  1
KpKp144  tied  factor  1.80E+02  1.20E+02  5.00E+02  Kxp  1  0  1
KpKp145  tied  factor  1.80E+02  1.20E+02  5.00E+02  Kxp  1  0  1
KpKp146  tied  factor  1.80E+02  1.20E+02  5.00E+02  Kxp  1  0  1
KpKp147  tied  factor  1.80E+02  1.20E+02  5.00E+02  Kxp  1  0  1
KpKp148  tied  factor  1.80E+02  1.20E+02  5.00E+02  Kxp  1  0  1
KpKp149  tied  factor  1.80E+02  1.20E+02  5.00E+02  Kxp  1  0  1
KpKp150  tied  factor  1.80E+02  1.20E+02  5.00E+02  Kxp  1  0  1
KpKp151  tied  factor  1.80E+02  1.20E+02  5.00E+02  Kxp  1  0  1
KpKp152  tied  factor  1.80E+02  1.20E+02  5.00E+02  Kxp  1  0  1
KpKp153  tied  factor  1.80E+02  1.20E+02  5.00E+02  Kxp  1  0  1
KpKp154  tied  factor  1.80E+02  1.20E+02  5.00E+02  Kxp  1  0  1
KpKp155  tied  factor  1.80E+02  1.20E+02  5.00E+02  Kxp  1  0  1
KpKp156  tied  factor  1.80E+02  1.20E+02  5.00E+02  Kxp  1  0  1
KpKp157  tied  factor  1.80E+02  1.20E+02  5.00E+02  Kxp  1  0  1
KpKp158  tied  factor  1.80E+02  1.20E+02  5.00E+02  Kxp  1  0  1
KpKp159  tied  factor  1.80E+02  1.20E+02  5.00E+02  Kxp  1  0  1
KpKp160  tied  factor  1.80E+02  1.20E+02  5.00E+02  Kxp  1  0  1
KpKp161  tied  factor  1.80E+02  1.20E+02  5.00E+02  Kxp  1  0  1
KpKp162  tied  factor  1.80E+02  1.20E+02  5.00E+02  Kxp  1  0  1
KpKp163  tied  factor  1.80E+02  1.20E+02  5.00E+02  Kxp  1  0  1
KpKp164  tied  factor  1.80E+02  1.20E+02  5.00E+02  Kxp  1  0  1
KpKp165  tied  factor  1.80E+02  1.20E+02  5.00E+02  Kxp  1  0  1
KpKp166  tied  factor  1.80E+02  1.20E+02  5.00E+02  Kxp  1  0  1
KpKp167  tied  factor  1.80E+02  1.20E+02  5.00E+02  Kxp  1  0  1
KpKp168  tied  factor  1.80E+02  1.20E+02  5.00E+02  Kxp  1  0  1
KpKp169  tied  factor  1.80E+02  1.20E+02  5.00E+02  Kxp  1  0  1
KpKp170  tied  factor  1.80E+02  1.20E+02  5.00E+02  Kxp  1  0  1
KpKp171  tied  factor  1.80E+02  1.20E+02  5.00E+02  Kxp  1  0  1
KpKp172  tied  factor  1.80E+02  1.20E+02  5.00E+02  Kxp  1  0  1
KpKp173  tied  factor  1.80E+02  1.20E+02  5.00E+02  Kxp  1  0  1
KpKp174  tied  factor  1.80E+02  1.20E+02  5.00E+02  Kxp  1  0  1
KpKp175  tied  factor  1.80E+02  1.20E+02  5.00E+02  Kxp  1  0  1
KpKp176  tied  factor  1.80E+02  1.20E+02  5.00E+02  Kxp  1  0  1
KpKp177  tied  factor  1.80E+02  1.20E+02  5.00E+02  Kxp  1  0  1
KpKp178  tied  factor  1.80E+02  1.20E+02  5.00E+02  Kxp  1  0  1
KpKp179  tied  factor  1.80E+02  1.20E+02  5.00E+02  Kxp  1  0  1
KpKp180  tied  factor  1.80E+02  1.20E+02  5.00E+02  Kxp  1  0  1
KpKp181  tied  factor  1.80E+02  1.20E+02  5.00E+02  Kxp  1  0  1
KpKp182  tied  factor  1.80E+02  1.20E+02  5.00E+02  Kxp  1  0  1
KpKp183  tied  factor  1.80E+02  1.20E+02  5.00E+02  Kxp  1  0  1
KpKp184  tied  factor  1.80E+02  1.20E+02  5.00E+02  Kxp  1  0  1
KpKp185  tied  factor  1.80E+02  1.20E+02  5.00E+02  Kxp  1  0  1
KpKp186  tied  factor  1.80E+02  1.20E+02  5.00E+02  Kxp  1  0  1
KpKp187  tied  factor  1.80E+02  1.20E+02  5.00E+02  Kxp  1  0  1
KpKp188  tied  factor  1.80E+02  1.20E+02  5.00E+02  Kxp  1  0  1
KpKp189  tied  factor  1.80E+02  1.20E+02  5.00E+02  Kxp  1  0  1
KpKp190  tied  factor  1.80E+02  1.20E+02  5.00E+02  Kxp  1  0  1
KpKp191  tied  factor  1.80E+02  1.20E+02  5.00E+02  Kxp  1  0  1
KpKp192  tied  factor  1.80E+02  1.20E+02  5.00E+02  Kxp  1  0  1
KpKp193  tied  factor  1.80E+02  1.20E+02  5.00E+02  Kxp  1  0  1
KpKp194  tied  factor  1.80E+02  1.20E+02  5.00E+02  Kxp  1  0  1
KpKp195  tied  factor  1.80E+02  1.20E+02  5.00E+02  Kxp  1  0  1
KpKp196  tied  factor  1.80E+02  1.20E+02  5.00E+02  Kxp  1  0  1
KpKp197  tied  factor  1.80E+02  1.20E+02  5.00E+02  Kxp  1  0  1
KpKp198  tied  factor  1.80E+02  1.20E+02  5.00E+02  Kxp  1  0  1
KpKp199  tied  factor  1.80E+02  1.20E+02  5.00E+02  Kxp  1  0  1
KpKp200  tied  factor  1.80E+02  1.20E+02  5.00E+02  Kxp  1  0  1
KpKp201  tied  factor  1.80E+02  1.20E+02  5.00E+02  Kxp  1  0  1
KpKp202  tied  factor  1.80E+02  1.20E+02  5.00E+02  Kxp  1  0  1
KpKp203  tied  factor  1.80E+02  1.20E+02  5.00E+02  Kxp  1  0  1
KpKp204  tied  factor  1.80E+02  1.20E+02  5.00E+02  Kxp  1  0  1
KpKp205  tied  factor  1.80E+02  1.20E+02  5.00E+02  Kxp  1  0  1
KpKp206  tied  factor  1.80E+02  1.20E+02  5.00E+02  Kxp  1  0  1
KpKp207  tied  factor  1.80E+02  1.20E+02  5.00E+02  Kxp  1  0  1
KpKp208  tied  factor  1.80E+02  1.20E+02  5.00E+02  Kxp  1  0  1
KpKp209  tied  factor  1.80E+02  1.20E+02  5.00E+02  Kxp  1  0  1
KpKp210  tied  factor  1.80E+02  1.20E+02  5.00E+02  Kxp  1  0  1
KpKp211  tied  factor  1.80E+02  1.20E+02  5.00E+02  Kxp  1  0  1
KpKp212  tied  factor  1.80E+02  1.20E+02  5.00E+02  Kxp  1  0  1
KpKp213  tied  factor  1.80E+02  1.20E+02  5.00E+02  Kxp  1  0  1
KpKp214  tied  factor  1.80E+02  1.20E+02  5.00E+02  Kxp  1  0  1
KpKp215  tied  factor  1.80E+02  1.20E+02  5.00E+02  Kxp  1  0  1
KpKp216  tied  factor  1.80E+02  1.20E+02  5.00E+02  Kxp  1  0  1
KpKp217  tied  factor  1.80E+02  1.20E+02  5.00E+02  Kxp  1  0  1
KpKp218  tied  factor  1.80E+02  1.20E+02  5.00E+02  Kxp  1  0  1
KpKp219  tied  factor  1.80E+02  1.20E+02  5.00E+02  Kxp  1  0  1
KpKp220  tied  factor  1.80E+02  1.20E+02  5.00E+02  Kxp  1  0  1
KpKp221  tied  factor  1.80E+02  1.20E+02  5.00E+02  Kxp  1  0  1
KpKp222  tied  factor  1.80E+02  1.20E+02  5.00E+02  Kxp  1  0  1
KpKp223  tied  factor  1.80E+02  1.20E+02  5.00E+02  Kxp  1  0  1
KpKp224  tied  factor  1.80E+02  1.20E+02  5.00E+02  Kxp  1  0  1
KpKp225  tied  factor  1.80E+02  1.20E+02  5.00E+02  Kxp  1  0  1
KpKp226  tied  factor  1.80E+02  1.20E+02  5.00E+02  Kxp  1  0  1
KpKp227  tied  factor  1.80E+02  1.20E+02  5.00E+02  Kxp  1  0  1
KpKp228  tied  factor  1.80E+02  1.20E+02  5.00E+02  Kxp  1  0  1
KpKp229  tied  factor  1.80E+02  1.20E+02  5.00E+02  Kxp  1  0  1
KpKp230  tied  factor  1.80E+02  1.20E+02  5.00E+02  Kxp  1  0  1
KpKp231  tied  factor  1.80E+02  1.20E+02  5.00E+02  Kxp  1  0  1
KpKp232  tied  factor  1.80E+02  1.20E+02  5.00E+02  Kxp  1  0  1
KpKp233  tied  factor  1.80E+02  1.20E+02  5.00E+02  Kxp  1  0  1
KpKp234  tied  factor  1.80E+02  1.20E+02  5.00E+02  Kxp  1  0  1
KpKp235  tied  factor  1.80E+02  1.20E+02  5.00E+02  Kxp  1  0  1
KpKp236  tied  factor  1.80E+02  1.20E+02  5.00E+02  Kxp  1  0  1
KpKp237  tied  factor  1.80E+02  1.20E+02  5.00E+02  Kxp  1  0  1
KpKp238  tied  factor  1.80E+02  1.20E+02  5.00E+02  Kxp  1  0  1
KpKp239  tied  factor  1.80E+02  1.20E+02  5.00E+02  Kxp  1  0  1
KpKp240  tied  factor  1.80E+02  1.20E+02  5.00E+02  Kxp  1  0  1
KpKp241  tied  factor  1.80E+02  1.20E+02  5.00E+02  Kxp  1  0  1
KpKp242  tied  factor  1.80E+02  1.20E+02  5.00E+02  Kxp  1  0  1
KpKp243  tied  factor  1.80E+02  1.20E+02  5.00E+02  Kxp  1  0  1
KpKp244  tied  factor  1.80E+02  1.20E+02  5.00E+02  Kxp  1  0  1
KpKp245  tied  factor  1.80E+02  1.20E+02  5.00E+02  Kxp  1  0  1
KpKp246  tied  factor  1.80E+02  1.20E+02  5.00E+02  Kxp  1  0  1
KpKp247  tied  factor  1.80E+02  1.20E+02  5.00E+02  Kxp  1  0  1
KpKp248  tied  factor  1.80E+02  1.20E+02  5.00E+02  Kxp  1  0  1
KpKp249  tied  factor  1.80E+02  1.20E+02  5.00E+02  Kxp  1  0  1
KpKp250  tied  factor  1.80E+02  1.20E+02  5.00E+02  Kxp  1  0  1
KpKp251  tied  factor  1.80E+02  1.20E+02  5.00E+02  Kxp  1  0  1
KpKp252  tied  factor  1.80E+02  1.20E+02  5.00E+02  Kxp  1  0  1
KpKp253  tied  factor  1.80E+02  1.20E+02  5.00E+02  Kxp  1  0  1
KpKp254  tied  factor  1.80E+02  1.20E+02  5.00E+02  Kxp  1  0  1
KpKp255  tied  factor  1.80E+02  1.20E+02  5.00E+02  Kxp  1  0  1
KpKp256  tied  factor  1.80E+02  1.20E+02  5.00E+02  Kxp  1  0  1
KpKp257  tied  factor  1.80E+02  1.20E+02  5.00E+02  Kxp  1  0  1
KpKp258  tied  factor  1.80E+02  1.20E+02  5.00E+02  Kxp  1  0  1
KpKp259  tied  factor  1.80E+02  1.20E+02  5.00E+02  Kxp  1  0  1
KpKp260  tied  factor  1.80E+02  1.20E+02  5.00E+02  Kxp  1  0  1
KpKp261  tied  factor  1.80E+02  1.20E+02  5.00E+02  Kxp  1  0  1
KpKp262  tied  factor  1.80E+02  1.20E+02  5.00E+02  Kxp  1  0  1
KpKp263  tied  factor  1.80E+02  1.20E+02  5.00E+02  Kxp  1  0  1
KpKp264  tied  factor  1.80E+02  1.20E+02  5.00E+02  Kxp  1  0  1
KpKp265  tied  factor  1.80E+02  1.20E+02  5.00E+02  Kxp  1  0  1
KpKp266  tied  factor  1.80E+02  1.20E+02  5.00E+02  Kxp  1  0  1
KpKp267  tied  factor  1.80E+02  1.20E+02  5.00E+02  Kxp  1  0  1
KpKp268  tied  factor  1.80E+02  1.20E+02  5.00E+02  Kxp  1  0  1
KpKp269  tied  factor  1.80E+02  1.20E+02  5.00E+02  Kxp  1  0  1
KpKp270  tied  factor  1.80E+02  1.20E+02  5.00E+02  Kxp  1  0  1
KpKp271  tied  factor  1.80E+02  1.20E+02  5.00E+02  Kxp  1  0  1
KpKp272  tied  factor  1.80E+02  1.20E+02  5.00E+02  Kxp  1  0  1
KpKp273  tied  factor  1.80E+02  1.20E+02  5.00E+02  Kxp  1  0  1
KpKp274  tied  factor  1.80E+02  1.20E+02  5.00E+02  Kxp  1  0  1
KpKp275  tied  factor  1.80E+02  1.20E+02  5.00E+02  Kxp  1  0  1
KpKp276  tied  factor  1.80E+02  1.20E+02  5.00E+02  Kxp  1  0  1
KpKp277  tied  factor  1.80E+02  1.20E+02  5.00E+02  Kxp  1  0  1
KpKp278  tied  factor  1.80E+02  1.20E+02  5.00E+02  Kxp  1  0  1
KpKp279  tied  factor  1.80E+02  1.20E+02  5.00E+02  Kxp  1  0  1
KpKp280  tied  factor  1.80E+02  1.20E+02  5.00E+02  Kxp  1  0  1
KpKp281  tied  factor  1.80E+02  1.20E+02  5.00E+02  Kxp  1  0  1
KpKp282  tied  factor  1.80E+02  1.20E+02  5.00E+02  Kxp  1  0  1
KpKp283  tied  factor  1.80E+02  1.20E+02  5.00E+02  Kxp  1  0  1
KpKp284  tied  factor  1.80E+02  1.20E+02  5.00E+02  Kxp  1  0  1
KpKp285  tied  factor  1.80E+02  1.20E+02  5.00E+02  Kxp  1  0  1
KpKp286  tied  factor  1.80E+02  1.20E+02  5.00E+02  Kxp  1  0  1
KpKp287  tied  factor  1.80E+02  1.20E+02  5.00E+02  Kxp  1  0  1
KpKp288  tied  factor  1.80E+02  1.20E+02  5.00E+02  Kxp  1  0  1
KpKp289  tied  factor  1.80E+02  1.20E+02  5.00E+02  Kxp  1  0  1
KpKp290  tied  factor  1.80E+02  1.20E+02  5.00E+02  Kxp  1  0  1
KpKp291  tied  factor  1.80E+02  1.20E+02  5.00E+02  Kxp  1  0  1
KpKp292  tied  factor  1.80E+02  1.20E+02  5.00E+02  Kxp  1  0  1
KpKp293  tied  factor  1.80E+02  1.20E+02  5.00E+02  Kxp  1  0  1
KpKp294  tied  factor  1.80E+02  1.20E+02  5.00E+02  Kxp  1  0  1
KpKp295  tied  factor  1.80E+02  1.20E+02  5.00E+02  Kxp  1  0  1
KpKp296  tied  factor  1.80E+02  1.20E+02  5.00E+02  Kxp  1  0  1
KpKp297  tied  factor  1.80E+02  1.20E+02  5.00E+02  Kxp  1  0  1
KpKp298  tied  factor  1.80E+02  1.20E+02  5.00E+02  Kxp  1  0  1
KpKp299  tied  factor  1.80E+02  1.20E+02  5.00E+02  Kxp  1  0  1
KpKp300  tied  factor  1.80E+02  1.20E+02  5.00E+02  Kxp  1  0  1
KpKp301  tied  factor  1.80E+02  1.20E+02  5.00E+02  Kxp  1  0  1
KpKp302  tied  factor  1.80E+02  1.20E+02  5.00E+02  Kxp  1  0  1
KpKp303  tied  factor  1.80E+02  1.20E+02  5.00E+02  Kxp  1  0  1
KpKp304  tied  factor  1.80E+02  1.20E+02  5.00E+02  Kxp  1  0  1
KpKp305  tied  factor  1.80E+02  1.20E+02  5.00E+02  Kxp  1  0  1
KpKp306  tied  factor  1.80E+02  1.20E+02  5.00E+02  Kxp  1  0  1
KpKp307  tied  factor  1.80E+02  1.20E+02  5.00E+02  Kxp  1  0  1
KpKp308  tied  factor  1.80E+02  1.20E+02  5.00E+02  Kxp  1  0  1
KpKp309  tied  factor  1.80E+02  1.20E+02  5.00E+02  Kxp  1  0  1
KpKp310  tied  factor  1.80E+02  1.20E+02  5.00E+02  Kxp  1  0  1
KpKp311  tied  factor  1.80E+02  1.20E+02  5.00E+02  Kxp  1  0  1
KpKp312  tied  factor  1.80E+02  1.20E+02  5.00E+02  Kxp  1  0  1
KpKp313  tied  factor  1.80E+02  1.20E+02  5.00E+02  Kxp  1  0  1
KpKp314  tied  factor  1.80E+02  1.20E+02  5.00E+02  Kxp  1  0  1
KpKp315  tied  factor  1.80E+02  1.20E+02  5.00E+02  Kxp  1  0  1
KpKp316  tied  factor  1.80E+02  1.20E+02  5.00E+02  Kxp  1  0  1
KpKp317  tied  factor  1.80E+02  1.20E+02  5.00E+02  Kxp  1  0  1
KpKp318  tied  factor  1.80E+02  1.20E+02  5.00E+02  Kxp  1  0  1
KpKp319  tied  factor  1.80E+02  1.20E+02  5.00E+02  Kxp  1  0  1
KpKp320  tied  factor  1.80E+02  1.20E+02  5.00E+02  Kxp  1  0  1
KpKp321  tied  factor  1.80E+02  1.20E+02  5.00E+02  Kxp  1  0  1
KpKp322  tied  factor  1.80E+02  1.20E+02  5.00E+02  Kxp  1  0  1
KpKp323  tied  factor  1.80E+02  1.20E+02  5.00E+02  Kxp  1  0  1
KpKp324  tied  factor  1.80E+02  1.20E+02  5.00E+02  Kxp  1  0  1
KpKp325  tied  factor  1.80E+02  1.20E+02  5.00E+02  Kxp  1  0  1
KpKp326  tied  factor  1.80E+02  1.20E+02  5.00E+02  Kxp  1  0  1
KpKp327  tied  factor  1.80E+02  1.20E+02  5.00E+02  Kxp  1  0  1
KzKz1  log  factor  1.0E+01  6.00E+00  3.19E+02  Kzp  1  0  1
KzKz2  tied  factor  8.5E+00  6.00E+00  3.19E+02  Kzp  1  0  1
KzKz3  tied  factor  8.5E+00  6.00E+00  3.19E+02  Kzp  1  0  1
KzKz4  tied  factor  8.5E+00  6.00E+00  3.19E+02  Kzp  1  0  1
KzKz5  tied  factor  8.5E+00  6.00E+00  3.19E+02  Kzp  1  0  1
KzKz6  tied  factor  8.5E+00  6.00E+00  3.19E+02  Kzp  1  0  1
KzKz7  tied  factor  8.5E+00  6.00E+00  3.19E+02  Kzp  1  0  1
KzKz8  tied  factor  8.5E+00  6.00E+00  3.19E+02  Kzp  1  0  1
KzKz9  tied  factor  8.5E+00  6.00E+00  3.19E+02  Kzp  1  0  1
KzKz10  tied  factor  8.5E+00  6.00E+00  3.19E+02  Kzp  1  0  1
KzKz11  tied  factor  8.5E+00  6.00E+00  3.19E+02  Kzp  1  0  1
KzKz12  tied  factor  8.5E+00  6.00E+00  3.19E+02  Kzp  1  0  1
KzKz13  tied  factor  8.5E+00  6.00E+00  3.19E+02  Kzp  1  0  1
KzKz14  tied  factor  8.5E+00  6.00E+00  3.19E+02  Kzp  1  0  1
KzKz15  tied  factor  8.5E+00  6.00E+00  3.19E+02  Kzp  1  0  1
KzKz16  tied  factor  8.5E+00  6.00E+00  3.19E+02  Kzp  1  0  1
KzKz17  tied  factor  8.5E+00  6.00E+00  3.19E+02  Kzp  1  0  1
KzKz18  tied  factor  8.5E+00  6.00E+00  3.19E+02  Kzp  1  0  1
KzKz19  tied  factor  8.5E+00  6.00E+00  3.19E+02  Kzp  1  0  1
KzKz20  tied  factor  8.5E+00  6.00E+00  3.19E+02  Kzp  1  0  1
KzKz21  tied  factor  8.5E+00  6.00E+00  3.19E+02  Kzp  1  0  1
KzKz22  tied  factor  8.5E+00  6.00E+00  3.19E+02  Kzp  1  0  1
KzKz23  tied  factor  8.5E+00  6.00E+00  3.19E+02  Kzp  1  0  1
KzKz24  tied  factor  8.5E+00  6.00E+00  3.19E+02  Kzp  1  0  1
KzKz25  tied  factor  8.5E+00  6.00E+00  3.19E+02  Kzp  1  0  1
KzKz26  tied  factor  8.5E+00  6.00E+00  3.19E+02  Kzp  1  0  1
KzKz27  tied  factor  8.5E+00  6.00E+00  3.19E+02  Kzp  1  0  1
KzKz28  tied  factor  8.5E+00  6.00E+00  3.19E+02  Kzp  1  0  1
KzKz29  tied  factor  8.5E+00  6.00E+00  3.19E+02  Kzp  1  0  1
KzKz30  tied  factor  8.5E+00  6.00E+00  3.19E+02  Kzp  1  0  1
KzKz31  tied  factor  8.5E+00  6.00E+00  3.19E+02  Kzp  1  0  1
KzKz32  tied  factor  8.5E+00  6.00E+00  3.19E+02  Kzp  1  0  1
KzKz33  tied  factor  8.5E+00  6.00E+00  3.19E+02  Kzp  1  0  1
KzKz34  tied  factor  8.5E+00  6.00E+00  3.19E+02  Kzp  1  0  1
KzKz35  tied  factor  8.5E+00  6.00E+00  3.19E+02  Kzp  1  0  1
KzKz36  tied  factor  8.5E+00  6.00E+00  3.19E+02  Kzp  1  0  1
KzKz37  tied  factor  8.5E+00  6.00E+00  3.19E+02  Kzp  1  0  1
KzKz38  tied  factor  8.5E+00  6.00E+00  3.19E+02  Kzp  1  0  1
KzKz39  tied  factor  8.5E+00  6.00E+00  3.19E+02  Kzp  1  0  1
KzKz40  tied  factor  8.5E+00  6.00E+00  3.19E+02  Kzp  1  0  1
KzKz41  tied  factor  8.5E+00  6.00E+00  3.19E+02  Kzp  1  0  1
KzKz42  tied  factor  8.5E+00  6.00E+00  3.19E+02  Kzp  1  0  1
KzKz43  tied  factor  8.5E+00  6.00E+00  3.19E+02  Kzp  1  0  1
KzKz44  tied  factor  8.5E+00  6.00E+00  3.19E+02  Kzp  1  0  1
KzKz45  tied  factor  8.5E+00  6.00E+00  3.19E+02  Kzp  1  0  1
KzKz46  tied  factor  8.5E+00  6.00E+00  3.19E+02  Kzp  1  0  1
KzKz47  tied  factor  8.5E+00  6.00E+00  3.19E+02  Kzp  1  0  1
KzKz48  tied  factor  8.5E+00  6.00E+00  3.19E+02  Kzp  1  0  1
KzKz49  tied  factor  8.5E+00  6.00E+00  3.19E+02  Kzp  1  0  1
KzKz50  tied  factor  8.5E+00  6.00E+00  3.19E+02  Kzp  1  0  1
KzKz51  tied  factor  8.5E+00  6.00E+00  3.19E+02  Kzp  1  0  1
KzKz52  tied  factor  8.5E+00  6.00E+00  3.19E+02  Kzp  1  0  1
KzKz53  tied  factor  8.5E+00  6.00E+00  3.19E+02  Kzp  1  0  1
KzKz54  tied  factor  8.5E+00  6.00E+00  3.19E+02  Kzp  1  0  1
KzKz55  tied  factor  8.5E+00  6.00E+00  3.19E+02  Kzp  1  0  1
KzKz56  tied  factor  8.5E+00  6.00E+00  3.19E+02  Kzp  1  0  1
KzKz57  tied  factor  8.5E+00  6.00E+00  3.19E+02  Kzp  1  0  1
KzKz58  tied  factor  8.5E+00  6.00E+00  3.19E+02  Kzp  1  0  1
KzKz59  tied  factor  8.5E+00  6.00E+00  3.19E+02  Kzp  1  0  1
KzKz60  tied  factor  8.5E+00  6.00E+00  3.19E+02  Kzp  1  0  1
KzKz61  tied  factor  8.5E+00  6.00E+00  3.19E+02  Kzp  1  0  1
KzKz62  tied  factor  8.5E+00  6.00E+00  3.19E+02  Kzp  1  0  1
KzKz63  tied  factor  8.5E+00  6.00E+00  3.19E+02  Kzp  1  0  1
KzKz64  tied  factor  8.5E+00  6.00E+00  3.19E+02  Kzp  1  0  1
KzKz65  tied  factor  8.5E+00  6.00E+00  3.19E+02  Kzp  1  0  1
KzKz66  tied  factor  8.5E+00  6.00E+00  3.19E+02  Kzp  1  0  1
KzKz67  tied  factor  8.5E+00  6.00E+00  3.19E+02  Kzp  1  0  1
KzKz68  tied  factor  8.5E+00  6.00E+00  3.19E+02  Kzp  1  0  1
KzKz69  tied  factor  8.5E+00  6.00E+00  3.19E+02  Kzp  1  0  1
KzKz70  tied  factor  8.5E+00  6.00E+00  3.19E+02  Kzp  1  0  1
KzKz71  tied  factor  8.5E+00  6.00E+00  3.19E+02  Kzp  1  0  1
KzKz72  tied  factor  8.5E+00  6.00E+00  3.19E+02  Kzp  1  0  1
KzKz73  tied  factor  8.5E+00  6.00E+00  3.19E+02  Kzp  1  0  1
KzKz74  tied  factor  8.5E+00  6.00E+00  3.19E+02  Kzp  1  0  1
KzKz75  tied  factor  8.5E+00  6.00E+00  3.19E+02  Kzp  1  0  1
KzKz76  tied  factor  8.5E+00  6.00E+00  3.19E+02  Kzp  1  0  1
KzKz77  tied  factor  8.5E+00  6.00E+00  3.19E+02  Kzp  1  0  1
KzKz78  tied  factor  8.5E+00  6.00E+00  3.19E+02  Kzp  1  0  1
KzKz79  tied  factor  8.5E+00  6.00E+00  3.19E+02  Kzp  1  0  1
KzKz80  tied  factor  8.5E+00  6.00E+00  3.19E+02  Kzp  1  0  1
KzKz81  tied  factor  8.5E+00  6.00E+00  3.19E+02  Kzp  1  0  1
KzKz82  tied  factor  8.5E+00  6.00E+00  3.19E+02  Kzp  1  0  1
KzKz83  tied  factor  8.5E+00  6.00E+00  3.19E+02  Kzp  1  0  1
KzKz84  tied  factor  8.5E+00  6.00E+00  3.19E+02  Kzp  1  0  1
KzKz85  tied  factor  8.5E+00  6.00E+00  3.19E+02  Kzp  1  0  1
KzKz86  tied  factor  8.5E+00  6.00E+00  3.19E+02  Kzp  1  0  1
KzKz87  tied  factor  8.5E+00  6.00E+00  3.19E+02  Kzp  1  0  1
KzKz88  tied  factor  8.5E+00  6.00E+00  3.19E+02  Kzp  1  0  1
KzKz89  tied  factor  8.5E+00  6.00E+00  3.19E+02  Kzp  1  0  1
KzKz90  tied  factor  8.5E+00  6.00E+00  3.19E+02  Kzp  1  0  1
KzKz91  tied  factor  8.5E+00  6.00E+00  3.19E+02  Kzp  1  0  1
KzKz92  tied  factor  8.5E+00  6.00E+00  3.19E+02  Kzp  1  0  1
KzKz93  tied  factor  8.5E+00  6.00E+00  3.19E+02  Kzp  1  0  1
KzKz94  tied  factor  8.5E+00  6.00E+00  3.19E+02  Kzp  1  0  1
KzKz95  tied  factor  8.5E+00  6.00E+00  3.19E+02  Kzp  1  0  1