pcf
* control data
restart regularisation
     80   9050      1      0     12  
    1    3 double point  1    0  0
   20.000       -3.0000      0.3  0.03  -7     999  lamforgive
      0.100  10.0  0.001
 0.1      1
    50  0.005  4  4  0.005  4
1  1  1  1 nojcosaveitn reisaveitn
* singular value decomposition
     1
    80  5.0000000E-07
     1
* svd assist
lpr_ss9_1swb.pst
lpr_ss9_1swb.jco
    1    2    0    1    0
* parameter groups
 pargp absolute    0.015  0.0  switch    2.0 parabolic
* parameter data
par1         none  relative   10.000     1.0e-20  1.0e20  pargp  1.0  -10.000      1
par2         none  relative   10.000     1.0e-20  1.0e20  pargp  1.0  -10.000      1
par3         none  relative   10.000     1.0e-20  1.0e20  pargp  1.0  -10.000      1
par4         none  relative   10.000     1.0e-20  1.0e20  pargp  1.0  -10.000      1
par5         none  relative   10.000     1.0e-20  1.0e20  pargp  1.0  -10.000      1
par6         none  relative   10.000     1.0e-20  1.0e20  pargp  1.0  -10.000      1
par7         none  relative   10.000     1.0e-20  1.0e20  pargp  1.0  -10.000      1
par8         none  relative   10.000     1.0e-20  1.0e20  pargp  1.0  -10.000      1
par9         none  relative   10.000     1.0e-20  1.0e20  pargp  1.0  -10.000      1
par10        none  relative   10.000     1.0e-20  1.0e20  pargp  1.0  -10.000      1
par11        none  relative   10.000     1.0e-20  1.0e20  pargp  1.0  -10.000      1
par12        none  relative   10.000     1.0e-20  1.0e20  pargp  1.0  -10.000      1
par13        none  relative   10.000     1.0e-20  1.0e20  pargp  1.0  -10.000      1
par14        none  relative   10.000     1.0e-20  1.0e20  pargp  1.0  -10.000      1
par15        none  relative   10.000     1.0e-20  1.0e20  pargp  1.0  -10.000      1
par16        none  relative   10.000     1.0e-20  1.0e20  pargp  1.0  -10.000      1
par17        none  relative   10.000     1.0e-20  1.0e20  pargp  1.0  -10.000      1
par18        none  relative   10.000     1.0e-20  1.0e20  pargp  1.0  -10.000      1
par19        none  relative   10.000     1.0e-20  1.0e20  pargp  1.0  -10.000      1
par20        none  relative   10.000     1.0e-20  1.0e20  pargp  1.0  -10.000      1
par21        none  relative   10.000     1.0e-20  1.0e20  pargp  1.0  -10.000      1
par22        none  relative   10.000     1.0e-20  1.0e20  pargp  1.0  -10.000      1
par23        none  relative   10.000     1.0e-20  1.0e20  pargp  1.0  -10.000      1
par24        none  relative   10.000     1.0e-20  1.0e20  pargp  1.0  -10.000      1
par25        none  relative   10.000     1.0e-20  1.0e20  pargp  1.0  -10.000      1
par26        none  relative   10.000     1.0e-20  1.0e20  pargp  1.0  -10.000      1
par27        none  relative   10.000     1.0e-20  1.0e20  pargp  1.0  -10.000      1
par28        none  relative   10.000     1.0e-20  1.0e20  pargp  1.0  -10.000      1
par29        none  relative   10.000     1.0e-20  1.0e20  pargp  1.0  -10.000      1
par30        none  relative   10.000     1.0e-20  1.0e20  pargp  1.0  -10.000      1
par31        none  relative   10.000     1.0e-20  1.0e20  pargp  1.0  -10.000      1
par32        none  relative   10.000     1.0e-20  1.0e20  pargp  1.0  -10.000      1
par33        none  relative   10.000     1.0e-20  1.0e20  pargp  1.0  -10.000      1
par34        none  relative   10.000     1.0e-20  1.0e20  pargp  1.0  -10.000      1
par35        none  relative   10.000     1.0e-20  1.0e20  pargp  1.0  -10.000      1
par36        none  relative   10.000     1.0e-20  1.0e20  pargp  1.0  -10.000      1
par37        none  relative   10.000     1.0e-20  1.0e20  pargp  1.0  -10.000      1
par38        none  relative   10.000     1.0e-20  1.0e20  pargp  1.0  -10.000      1
par39        none  relative   10.000     1.0e-20  1.0e20  pargp  1.0  -10.000      1
par40        none  relative   10.000     1.0e-20  1.0e20  pargp  1.0  -10.000      1
par41        none  relative   10.000     1.0e-20  1.0e20  pargp  1.0  -10.000      1
par42        none  relative   10.000     1.0e-20  1.0e20  pargp  1.0  -10.000      1
par43        none  relative   10.000     1.0e-20  1.0e20  pargp  1.0  -10.000      1
par44        none  relative   10.000     1.0e-20  1.0e20  pargp  1.0  -10.000      1
par45        none  relative   10.000     1.0e-20  1.0e20  pargp  1.0  -10.000      1
par46        none  relative   10.000     1.0e-20  1.0e20  pargp  1.0  -10.000      1
par47        none  relative   10.000     1.0e-20  1.0e20  pargp  1.0  -10.000      1
par48        none  relative   10.000     1.0e-20  1.0e20  pargp  1.0  -10.000      1
par49        none  relative   10.000     1.0e-20  1.0e20  pargp  1.0  -10.000      1
par50        none  relative   10.000     1.0e-20  1.0e20  pargp  1.0  -10.000      1
par51        none  relative   10.000     1.0e-20  1.0e20  pargp  1.0  -10.000      1
par52        none  relative   10.000     1.0e-20  1.0e20  pargp  1.0  -10.000      1
par53        none  relative   10.000     1.0e-20  1.0e20  pargp  1.0  -10.000      1
par54        none  relative   10.000     1.0e-20  1.0e20  pargp  1.0  -10.000      1
par55        none  relative   10.000     1.0e-20  1.0e20  pargp  1.0  -10.000      1
par56        none  relative   10.000     1.0e-20  1.0e20  pargp  1.0  -10.000      1
par57        none  relative   10.000     1.0e-20  1.0e20  pargp  1.0  -10.000      1
par58        none  relative   10.000     1.0e-20  1.0e20  pargp  1.0  -10.000      1
par59        none  relative   10.000     1.0e-20  1.0e20  pargp  1.0  -10.000      1
par60        none  relative   10.000     1.0e-20  1.0e20  pargp  1.0  -10.000      1
par61        none  relative   10.000     1.0e-20  1.0e20  pargp  1.0  -10.000      1
par62        none  relative   10.000     1.0e-20  1.0e20  pargp  1.0  -10.000      1
par63        none  relative   10.000     1.0e-20  1.0e20  pargp  1.0  -10.000      1
par64        none  relative   10.000     1.0e-20  1.0e20  pargp  1.0  -10.000      1
par65        none  relative   10.000     1.0e-20  1.0e20  pargp  1.0  -10.000      1
par66        none  relative   10.000     1.0e-20  1.0e20  pargp  1.0  -10.000      1
par67        none  relative   10.000     1.0e-20  1.0e20  pargp  1.0  -10.000      1
par68        none  relative   10.000     1.0e-20  1.0e20  pargp  1.0  -10.000      1
par69        none  relative   10.000     1.0e-20  1.0e20  pargp  1.0  -10.000      1
par70        none  relative   10.000     1.0e-20  1.0e20  pargp  1.0  -10.000      1
par71        none  relative   10.000     1.0e-20  1.0e20  pargp  1.0  -10.000      1
par72        none  relative   10.000     1.0e-20  1.0e20  pargp  1.0  -10.000      1
par73        none  relative   10.000     1.0e-20  1.0e20  pargp  1.0  -10.000      1
par74        none  relative   10.000     1.0e-20  1.0e20  pargp  1.0  -10.000      1
par75        none  relative   10.000     1.0e-20  1.0e20  pargp  1.0  -10.000      1
par76        none  relative   10.000     1.0e-20  1.0e20  pargp  1.0  -10.000      1
par77        none  relative   10.000     1.0e-20  1.0e20  pargp  1.0  -10.000      1
par78        none  relative   10.000     1.0e-20  1.0e20  pargp  1.0  -10.000      1
par79        none  relative   10.000     1.0e-20  1.0e20  pargp  1.0  -10.000      1
par80        none  relative   10.000     1.0e-20  1.0e20  pargp  1.0  -10.000      1
* observation groups
WISA_H
DM_H
PRF_H
RI_H
VP_H
USGS_H
WGNHS_H
LAKE_H
Flux
flux_lpr
regul_kp2
regul_kz2
* observation data
wisa_1   1.09059000E+03   0.00000000E+00   wisa_h
wisa_2   1.08751000E+03   0.00000000E+00   wisa_h
wisa_3   1.08816300E+03   0.00000000E+00   wisa_h
wisa_4   1.08931700E+03   0.00000000E+00   wisa_h
wisa_5   1.09029900E+03   0.00000000E+00   wisa_h
wisa_6   1.08910500E+03   0.00000000E+00   wisa_h
dm_7   1.07768000E+03   1.00000000E+00   dm_h
dm_8   1.07724300E+03   1.00000000E+00   dm_h
dm_9   1.07699500E+03   1.00000000E+00   dm_h
dm_10   1.07979500E+03   1.00000000E+00   dm_h
dm_11   1.07959200E+03   1.00000000E+00   dm_h
dm_12   1.07939700E+03   1.00000000E+00   dm_h
dm_13   1.08094800E+03   1.00000000E+00   dm_h
dm_14   1.07647700E+03   1.00000000E+00   dm_h
dm_15   1.08099000E+03   1.00000000E+00   dm_h
dm_16   1.07773500E+03   1.00000000E+00   dm_h
dm_17   1.07756200E+03   1.00000000E+00   dm_h
dm_18   1.07747000E+03   1.00000000E+00   dm_h
prf_19   1.12937000E+03   2.50000000E-01   prf_h
prf_20   1.12812800E+03   2.50000000E-01   prf_h
prf_21   1.12812800E+03   2.50000000E-01   prf_h
prf_22   1.13850700E+03   2.50000000E-01   prf_h
prf_23   1.14048700E+03   2.50000000E-01   prf_h
prf_24   1.14361300E+03   2.50000000E-01   prf_h
prf_25   1.13734500E+03   2.50000000E-01   prf_h
prf_26   1.08491200E+03   2.50000000E-01   prf_h
prf_27   1.08493000E+03   2.50000000E-01   prf_h
prf_28   1.12582300E+03   2.50000000E-01   prf_h
prf_29   1.12267000E+03   2.50000000E-01   prf_h
prf_30   1.12465600E+03   2.50000000E-01   prf_h
prf_31   1.12003600E+03   2.50000000E-01   prf_h
prf_32   1.12035000E+03   2.50000000E-01   prf_h
prf_33   1.11591400E+03   2.50000000E-01   prf_h
prf_34   1.12638400E+03   2.50000000E-01   prf_h
prf_35   1.13786400E+03   2.50000000E-01   prf_h
ri_36   1.01509000E+03   1.66666667E-01   ri_h
ri_37   1.13368000E+03   1.66666667E-01   ri_h
ri_38   1.13483000E+03   1.66666667E-01   ri_h
ri_39   1.04870000E+03   1.66666667E-01   ri_h
ri_40   1.16542000E+03   1.66666667E-01   ri_h
ri_41   1.11802000E+03   1.66666667E-01   ri_h
ri_42   1.05701000E+03   1.66666667E-01   ri_h
ri_43   1.09200000E+03   1.66666667E-01   ri_h
ri_44   1.11797000E+03   1.66666667E-01   ri_h
ri_45   1.08044000E+03   1.66666667E-01   ri_h
ri_46   1.10351000E+03   1.66666667E-01   ri_h
ri_47   1.05497000E+03   1.66666667E-01   ri_h
ri_48   1.06696000E+03   1.66666667E-01   ri_h
ri_49   1.05646000E+03   1.66666667E-01   ri_h
ri_50   1.10427000E+03   1.66666667E-01   ri_h
ri_51   1.12726000E+03   1.66666667E-01   ri_h
ri_52   1.09721000E+03   1.66666667E-01   ri_h
ri_53   1.15602000E+03   1.66666667E-01   ri_h
ri_54   1.04256000E+03   1.66666667E-01   ri_h
ri_55   1.14232000E+03   1.66666667E-01   ri_h
ri_56   1.11935000E+03   1.66666667E-01   ri_h
ri_57   1.05393000E+03   1.66666667E-01   ri_h
ri_58   1.10505000E+03   1.66666667E-01   ri_h
ri_59   1.08115000E+03   1.66666667E-01   ri_h
ri_60   1.08692000E+03   1.66666667E-01   ri_h
usgs_61   1.08779000E+03   2.00000000E+00   usgs_h
usgs_62   1.08127000E+03   2.00000000E+00   usgs_h
usgs_63   1.09480000E+03   2.00000000E+00   usgs_h
vp_64   1.07614000E+03   6.00000000E-01   vp_h
vp_65   1.07678700E+03   6.00000000E-01   vp_h
vp_66   1.08980300E+03   6.00000000E-01   vp_h
vp_67   1.08936800E+03   6.00000000E-01   vp_h
vp_68   1.07093400E+03   6.00000000E-01   vp_h
vp_69   1.07302800E+03   6.00000000E-01   vp_h
wgnhs_70   1.07373000E+03   8.00000000E-01   wgnhs_h
wgnhs_71   1.08518000E+03   8.00000000E-01   wgnhs_h
wgnhs_72   1.08507000E+03   8.00000000E-01   wgnhs_h
wgnhs_73   1.09055000E+03   8.00000000E-01   wgnhs_h
wgnhs_74   1.09070000E+03   8.00000000E-01   wgnhs_h
wgnhs_75   1.10265000E+03   8.00000000E-01   wgnhs_h
wgnhs_76   1.10324000E+03   8.00000000E-01   wgnhs_h
wgnhs_77   1.09792000E+03   8.00000000E-01   wgnhs_h
wgnhs_78   1.09792000E+03   8.00000000E-01   wgnhs_h
wgnhs_79   1.08237000E+03   8.00000000E-01   wgnhs_h
wgnhs_80   1.06820000E+03   8.00000000E-01   wgnhs_h
wgnhs_81   1.10795000E+03   8.00000000E-01   wgnhs_h
lake_82   1.10675000E+03   2.50000000E-01   lake_h
lake_83   1.08870000E+03   2.50000000E-01   lake_h
lake_84   1.02520000E+03   2.50000000E-01   lake_h
lake_85   1.07420000E+03   2.50000000E-01   lake_h
lake_86   1.07250000E+03   2.50000000E-01   lake_h
lake_87   1.06660000E+03   2.50000000E-01   lake_h
lake_88   1.07610000E+03   2.50000000E-01   lake_h
lake_89   1.11460000E+03   2.50000000E-01   lake_h
lpri39   4.00196832E+00   3.74815561E+00   flux_lpr
lprhoov   5.21891325E+00   2.87416159E+00   flux_lpr
lpreis   1.94728274E+00   7.70304163E+00   flux_lpr
bearq   8.54589545E+00   9.36121914E-01   flux
springq   3.66571493E+00   2.18238465E+00   flux
ditch2   4.83722137E+00   1.65384203E+00   flux
noname   1.21529094E+00   6.58278585E+00   flux
swcan3   1.59202828E+01   5.02503637E-01   flux
swcan2   1.22587004E+01   6.52597727E-01   flux
swcan1   7.51483200E+00   1.06456139E+00   flux
lprken   9.08786252E-01   1.65055314E+01   flux_lpr
 i2k1    0.000000        1.286000      regul_kp2
 i2k2    0.000000       0.9870100      regul_kp2
 i2k3    0.000000        1.286000      regul_kp2
 i2k4    0.000000       0.8701200      regul_kp2
 i2k5    0.000000       0.9870100      regul_kp2
 i2k6    0.000000        1.286000      regul_kp2
 i2k7    0.000000       0.8094700      regul_kp2
 i2k8    0.000000       0.8701200      regul_kp2
 i2k9    0.000000       0.9870100      regul_kp2
 i2k10    0.000000        1.286000      regul_kp2
 i2k11    0.000000       0.8094700      regul_kp2
 i2k12    0.000000       0.8701200      regul_kp2
 i2k13    0.000000       0.9870100      regul_kp2
 i2k14    0.000000        1.286000      regul_kp2
 i2k15    0.000000       0.8653700      regul_kp2
 i2k16    0.000000       0.9767900      regul_kp2
 i2k17    0.000000        1.251300      regul_kp2
 i2k18    0.000000       0.8064000      regul_kp2
 i2k19    0.000000       0.8643200      regul_kp2
 i2k20    0.000000       0.9736100      regul_kp2
 i2k21    0.000000        1.278700      regul_kp2
 i2k22    0.000000       0.8038100      regul_kp2
 i2k23    0.000000       0.8583800      regul_kp2
 i2k24    0.000000       0.9722200      regul_kp2
 i2k25    0.000000        1.239200      regul_kp2
 i2k26    0.000000        1.270000      regul_kp2
 i2k27    0.000000        1.068400      regul_kp2
 i2k28    0.000000       0.9222500      regul_kp2
 i2k29    0.000000       0.8415600      regul_kp2
 i2k30    0.000000        1.174600      regul_kp2
 i2k31    0.000000        1.270000      regul_kp2
 i2k32    0.000000        1.068400      regul_kp2
 i2k33    0.000000       0.9222500      regul_kp2
 i2k34    0.000000       0.8415600      regul_kp2
 i2k35    0.000000        1.286000      regul_kp2
 i2k36    0.000000       0.9844100      regul_kp2
 i2k37    0.000000        1.174600      regul_kp2
 i2k38    0.000000        1.270000      regul_kp2
 i2k39    0.000000        1.068400      regul_kp2
 i2k40    0.000000       0.9222500      regul_kp2
 i2k41    0.000000       0.8415600      regul_kp2
 i2k42    0.000000       0.9870100      regul_kp2
 i2k43    0.000000        1.286000      regul_kp2
 i2k44    0.000000       0.8762100      regul_kp2
 i2k45    0.000000       0.9844100      regul_kp2
 i2k46    0.000000        1.174600      regul_kp2
 i2k47    0.000000        1.270000      regul_kp2
 i2k48    0.000000        1.068400      regul_kp2
 i2k49    0.000000       0.9222500      regul_kp2
 i2k50    0.000000       0.8410200      regul_kp2
 i2k51    0.000000       0.8701200      regul_kp2
 i2k52    0.000000       0.9870100      regul_kp2
 i2k53    0.000000        1.286000      regul_kp2
 i2k54    0.000000       0.8762100      regul_kp2
 i2k55    0.000000       0.9844100      regul_kp2
 i2k56    0.000000        1.174600      regul_kp2
 i2k57    0.000000        1.270000      regul_kp2
 i2k58    0.000000        1.068400      regul_kp2
 i2k59    0.000000       0.9234900      regul_kp2
 i2k60    0.000000       0.8433600      regul_kp2
 i2k61    0.000000       0.8701200      regul_kp2
 i2k62    0.000000       0.9870100      regul_kp2
 i2k63    0.000000        1.286000      regul_kp2
 i2k64    0.000000       0.8762100      regul_kp2
 i2k65    0.000000       0.9844100      regul_kp2
 i2k66    0.000000        1.174600      regul_kp2
 i2k67    0.000000        1.270000      regul_kp2
 i2k68    0.000000        1.081600      regul_kp2
 i2k69    0.000000       0.9296600      regul_kp2
 i2k70    0.000000       0.8472200      regul_kp2
 i2k71    0.000000       0.8701200      regul_kp2
 i2k72    0.000000       0.9870100      regul_kp2
 i2k73    0.000000        1.286000      regul_kp2
 i2k74    0.000000       0.8711500      regul_kp2
 i2k75    0.000000       0.9703700      regul_kp2
 i2k76    0.000000        1.127900      regul_kp2
 i2k77    0.000000        1.262500      regul_kp2
 i2k78    0.000000        1.081600      regul_kp2
 i2k79    0.000000       0.9373800      regul_kp2
 i2k80    0.000000       0.8697500      regul_kp2
 i2k81    0.000000       0.9858500      regul_kp2
 i2k82    0.000000        1.278700      regul_kp2
 i2k83    0.000000       0.7991100      regul_kp2
 i2k84    0.000000       0.8557300      regul_kp2
 i2k85    0.000000       0.9560100      regul_kp2
 i2k86    0.000000        1.233900      regul_kp2
 i2k87    0.000000       0.8476400      regul_kp2
 i2k88    0.000000       0.8656800      regul_kp2
 i2k89    0.000000       0.9560100      regul_kp2
 i2k90    0.000000        1.137200      regul_kp2
 i2k91    0.000000        1.262500      regul_kp2
 i2k92    0.000000        1.118100      regul_kp2
 i2k93    0.000000       0.8686400      regul_kp2
 i2k94    0.000000       0.9824200      regul_kp2
 i2k95    0.000000        1.278700      regul_kp2
 i2k96    0.000000       0.9414000      regul_kp2
 i2k97    0.000000       0.8498000      regul_kp2
 i2k98    0.000000       0.9373800      regul_kp2
 i2k99    0.000000        1.067900      regul_kp2
 i2k100    0.000000        1.262500      regul_kp2
 i2k101    0.000000       0.8623800      regul_kp2
 i2k102    0.000000       0.9722200      regul_kp2
 i2k103    0.000000        1.121300      regul_kp2
 i2k104    0.000000        1.239200      regul_kp2
 i2k105    0.000000       0.9867200      regul_kp2
 i2k106    0.000000       0.9457100      regul_kp2
 i2k107    0.000000       0.8794800      regul_kp2
 i2k108    0.000000        1.278700      regul_kp2
 i2k109    0.000000        1.156000      regul_kp2
 i2k110    0.000000       0.9726800      regul_kp2
 i2k111    0.000000       0.8697500      regul_kp2
 i2k112    0.000000       0.9560100      regul_kp2
 i2k113    0.000000       0.9867200      regul_kp2
 i2k114    0.000000       0.9457100      regul_kp2
 i2k115    0.000000       0.8794800      regul_kp2
 i2k116    0.000000        1.084800      regul_kp2
 i2k117    0.000000        1.278700      regul_kp2
 i2k118    0.000000        1.156000      regul_kp2
 i2k119    0.000000       0.9726800      regul_kp2
 i2k120    0.000000       0.8697500      regul_kp2
 i2k121    0.000000        1.286000      regul_kp2
 i2k122    0.000000       0.8900900      regul_kp2
 i2k123    0.000000       0.9560100      regul_kp2
 i2k124    0.000000       0.9867200      regul_kp2
 i2k125    0.000000       0.9457100      regul_kp2
 i2k126    0.000000       0.8794800      regul_kp2
 i2k127    0.000000       0.9313400      regul_kp2
 i2k128    0.000000        1.084800      regul_kp2
 i2k129    0.000000        1.278700      regul_kp2
 i2k130    0.000000        1.156000      regul_kp2
 i2k131    0.000000       0.9726800      regul_kp2
 i2k132    0.000000       0.8697500      regul_kp2
 i2k133    0.000000       0.9870100      regul_kp2
 i2k134    0.000000        1.286000      regul_kp2
 i2k135    0.000000       0.8900900      regul_kp2
 i2k136    0.000000       0.9560100      regul_kp2
 i2k137    0.000000       0.9867200      regul_kp2
 i2k138    0.000000       0.9457100      regul_kp2
 i2k139    0.000000       0.8794800      regul_kp2
 i2k140    0.000000       0.9313400      regul_kp2
 i2k141    0.000000        1.084800      regul_kp2
 i2k142    0.000000        1.278700      regul_kp2
 i2k143    0.000000        1.156000      regul_kp2
 i2k144    0.000000       0.9726800      regul_kp2
 i2k145    0.000000       0.8739400      regul_kp2
 i2k146    0.000000       0.8701200      regul_kp2
 i2k147    0.000000       0.9870100      regul_kp2
 i2k148    0.000000        1.286000      regul_kp2
 i2k149    0.000000       0.8900900      regul_kp2
 i2k150    0.000000       0.9560100      regul_kp2
 i2k151    0.000000       0.9867200      regul_kp2
 i2k152    0.000000       0.9457100      regul_kp2
 i2k153    0.000000       0.8857600      regul_kp2
 i2k154    0.000000       0.9313400      regul_kp2
 i2k155    0.000000        1.084800      regul_kp2
 i2k156    0.000000        1.278700      regul_kp2
 i2k157    0.000000        1.156000      regul_kp2
 i2k158    0.000000       0.9846900      regul_kp2
 i2k159    0.000000       0.8775200      regul_kp2
 i2k160    0.000000       0.8701200      regul_kp2
 i2k161    0.000000       0.9870100      regul_kp2
 i2k162    0.000000        1.286000      regul_kp2
 i2k163    0.000000       0.8790600      regul_kp2
 i2k164    0.000000       0.9355400      regul_kp2
 i2k165    0.000000       0.9606000      regul_kp2
 i2k166    0.000000       0.9421200      regul_kp2
 i2k167    0.000000       0.8857600      regul_kp2
 i2k168    0.000000       0.8395600      regul_kp2
 i2k169    0.000000       0.9224100      regul_kp2
 i2k170    0.000000        1.056600      regul_kp2
 i2k171    0.000000        1.202600      regul_kp2
 i2k172    0.000000        1.156000      regul_kp2
 i2k173    0.000000       0.9846900      regul_kp2
 i2k174    0.000000       0.8819300      regul_kp2
 i2k175    0.000000       0.8697500      regul_kp2
 i2k176    0.000000       0.9858500      regul_kp2
 i2k177    0.000000        1.278700      regul_kp2
 i2k178    0.000000       0.8412100      regul_kp2
 i2k179    0.000000       0.9114500      regul_kp2
 i2k180    0.000000        1.061800      regul_kp2
 i2k181    0.000000       0.8557300      regul_kp2
 i2k182    0.000000        1.262500      regul_kp2
 i2k183    0.000000       0.9560100      regul_kp2
 i2k184    0.000000        1.233900      regul_kp2
 i2k185    0.000000       0.8685500      regul_kp2
 i2k186    0.000000       0.9171300      regul_kp2
 i2k187    0.000000       0.9601800      regul_kp2
 i2k188    0.000000       0.9421200      regul_kp2
 i2k189    0.000000       0.9023500      regul_kp2
 i2k190    0.000000       0.9130000      regul_kp2
 i2k191    0.000000        1.029700      regul_kp2
 i2k192    0.000000        1.202600      regul_kp2
 i2k193    0.000000       0.8467200      regul_kp2
 i2k194    0.000000        1.156000      regul_kp2
 i2k195    0.000000        1.001800      regul_kp2
 i2k196    0.000000       0.8686400      regul_kp2
 i2k197    0.000000       0.9824200      regul_kp2
 i2k198    0.000000        1.278700      regul_kp2
 i2k199    0.000000       0.8841800      regul_kp2
 i2k200    0.000000       0.8431800      regul_kp2
 i2k201    0.000000       0.8920400      regul_kp2
 i2k202    0.000000       0.9238600      regul_kp2
 i2k203    0.000000       0.9421200      regul_kp2
 i2k204    0.000000       0.8870800      regul_kp2
 i2k205    0.000000       0.9888400      regul_kp2
 i2k206    0.000000       0.9040200      regul_kp2
 i2k207    0.000000        1.107700      regul_kp2
 i2k208    0.000000        1.156000      regul_kp2
 i2k209    0.000000       0.8623800      regul_kp2
 i2k210    0.000000       0.9722200      regul_kp2
 i2k211    0.000000        1.003200      regul_kp2
 i2k212    0.000000        1.239200      regul_kp2
 i2k213    0.000000       0.8686400      regul_kp2
 i2k214    0.000000       0.8492300      regul_kp2
 i2k215    0.000000       0.9867200      regul_kp2
 i2k216    0.000000       0.9457100      regul_kp2
 i2k217    0.000000       0.8794800      regul_kp2
 i2k218    0.000000        1.270000      regul_kp2
 i2k219    0.000000        1.068400      regul_kp2
 i2k220    0.000000       0.9222500      regul_kp2
 i2k221    0.000000       0.8643600      regul_kp2
 i2k222    0.000000       0.8686400      regul_kp2
 i2k223    0.000000       0.9560100      regul_kp2
 i2k224    0.000000       0.9867200      regul_kp2
 i2k225    0.000000       0.9457100      regul_kp2
 i2k226    0.000000       0.8794800      regul_kp2
 i2k227    0.000000        1.174600      regul_kp2
 i2k228    0.000000        1.270000      regul_kp2
 i2k229    0.000000        1.068400      regul_kp2
 i2k230    0.000000       0.9222500      regul_kp2
 i2k231    0.000000        1.286000      regul_kp2
 i2k232    0.000000       0.8643600      regul_kp2
 i2k233    0.000000       0.8686400      regul_kp2
 i2k234    0.000000       0.8900900      regul_kp2
 i2k235    0.000000       0.9560100      regul_kp2
 i2k236    0.000000       0.9867200      regul_kp2
 i2k237    0.000000       0.9457100      regul_kp2
 i2k238    0.000000       0.8794800      regul_kp2
 i2k239    0.000000       0.9844100      regul_kp2
 i2k240    0.000000        1.174600      regul_kp2
 i2k241    0.000000        1.270000      regul_kp2
 i2k242    0.000000        1.068400      regul_kp2
 i2k243    0.000000       0.9222500      regul_kp2
 i2k244    0.000000       0.9870100      regul_kp2
 i2k245    0.000000        1.286000      regul_kp2
 i2k246    0.000000       0.8643600      regul_kp2
 i2k247    0.000000       0.8686400      regul_kp2
 i2k248    0.000000       0.8900900      regul_kp2
 i2k249    0.000000       0.9560100      regul_kp2
 i2k250    0.000000       0.9867200      regul_kp2
 i2k251    0.000000       0.9457100      regul_kp2
 i2k252    0.000000       0.8794800      regul_kp2
 i2k253    0.000000       0.8762100      regul_kp2
 i2k254    0.000000       0.9844100      regul_kp2
 i2k255    0.000000        1.174600      regul_kp2
 i2k256    0.000000        1.270000      regul_kp2
 i2k257    0.000000        1.068400      regul_kp2
 i2k258    0.000000       0.9297400      regul_kp2
 i2k259    0.000000       0.8701200      regul_kp2
 i2k260    0.000000       0.9870100      regul_kp2
 i2k261    0.000000        1.286000      regul_kp2
 i2k262    0.000000       0.8643600      regul_kp2
 i2k263    0.000000       0.8686400      regul_kp2
 i2k264    0.000000       0.8900900      regul_kp2
 i2k265    0.000000       0.9560100      regul_kp2
 i2k266    0.000000       0.9867200      regul_kp2
 i2k267    0.000000       0.9457100      regul_kp2
 i2k268    0.000000       0.8896200      regul_kp2
 i2k269    0.000000       0.8762100      regul_kp2
 i2k270    0.000000       0.9844100      regul_kp2
 i2k271    0.000000        1.174600      regul_kp2
 i2k272    0.000000        1.270000      regul_kp2
 i2k273    0.000000        1.094000      regul_kp2
 i2k274    0.000000       0.9362900      regul_kp2
 i2k275    0.000000       0.8509600      regul_kp2
 i2k276    0.000000       0.8701200      regul_kp2
 i2k277    0.000000       0.9870100      regul_kp2
 i2k278    0.000000        1.286000      regul_kp2
 i2k279    0.000000       0.8524500      regul_kp2
 i2k280    0.000000       0.8561200      regul_kp2
 i2k281    0.000000       0.8476900      regul_kp2
 i2k282    0.000000       0.8790600      regul_kp2
 i2k283    0.000000       0.9355400      regul_kp2
 i2k284    0.000000       0.9606000      regul_kp2
 i2k285    0.000000       0.9457100      regul_kp2
 i2k286    0.000000       0.8896200      regul_kp2
 i2k287    0.000000       0.8711500      regul_kp2
 i2k288    0.000000       0.9703700      regul_kp2
 i2k289    0.000000        1.127900      regul_kp2
 i2k290    0.000000        1.270000      regul_kp2
 i2k291    0.000000        1.094000      regul_kp2
 i2k292    0.000000       0.9445300      regul_kp2
 i2k293    0.000000       0.8697500      regul_kp2
 i2k294    0.000000       0.9858500      regul_kp2
 i2k295    0.000000        1.278700      regul_kp2
 i2k296    0.000000       0.8668500      regul_kp2
 i2k297    0.000000       0.9206400      regul_kp2
 i2k298    0.000000       0.8696600      regul_kp2
 i2k299    0.000000       0.9421200      regul_kp2
 i2k300    0.000000       0.9498800      regul_kp2
 i2k301    0.000000        1.099800      regul_kp2
 i2k302    0.000000       0.8557300      regul_kp2
 i2k303    0.000000        1.156000      regul_kp2
 i2k304    0.000000       0.9560100      regul_kp2
 i2k305    0.000000        1.233900      regul_kp2
 i2k306    0.000000       0.8514100      regul_kp2
 i2k307    0.000000       0.8416300      regul_kp2
 i2k308    0.000000       0.8556700      regul_kp2
 i2k309    0.000000       0.8476900      regul_kp2
 i2k310    0.000000       0.8355600      regul_kp2
 i2k311    0.000000       0.8685500      regul_kp2
 i2k312    0.000000       0.9171300      regul_kp2
 i2k313    0.000000       0.9606000      regul_kp2
 i2k314    0.000000       0.9457100      regul_kp2
 i2k315    0.000000       0.9069900      regul_kp2
 i2k316    0.000000       0.8656800      regul_kp2
 i2k317    0.000000       0.9560100      regul_kp2
 i2k318    0.000000        1.127900      regul_kp2
 i2k319    0.000000       0.8502400      regul_kp2
 i2k320    0.000000        1.270000      regul_kp2
 i2k321    0.000000        1.133900      regul_kp2
 i2k322    0.000000       0.8686400      regul_kp2
 i2k323    0.000000       0.9824200      regul_kp2
 i2k324    0.000000        1.278700      regul_kp2
 i2k325    0.000000       0.9488300      regul_kp2
 i2k326    0.000000       0.8322900      regul_kp2
 i2k327    0.000000       0.8945700      regul_kp2
 i2k328    0.000000       0.9684600      regul_kp2
 i2k329    0.000000       0.8727600      regul_kp2
 i2k330    0.000000       0.9927000      regul_kp2
 i2k331    0.000000        1.226000      regul_kp2
 i2k332    0.000000       0.8570500      regul_kp2
 i2k333    0.000000       0.9734600      regul_kp2
 i2k334    0.000000        1.282800      regul_kp2
 i2k335    0.000000       0.8514700      regul_kp2
 i2k336    0.000000       0.8374800      regul_kp2
 i2k337    0.000000       0.8476900      regul_kp2