pcf
* control data
restart regularisation
    5495   11293      36     278      35
   12       4   single   point     1   0   0
    5    -3.0   0.3  0.03    10
 25.0  25.0 0.001  0
  0.1
    0  0.01     3     3  0.01     3
    1     1     1
* singular value decomposition
    1
 5622 5e-7
    0
* parameter groups
ChannelSeep      relative     0.02     0.0     switch      2.0      best_fit
l23k             relative     0.02     0.0     switch      2.0      best_fit
l45k             relative     0.02     0.0     switch      2.0      best_fit
l6k              relative     0.02     0.0     switch      2.0      best_fit
l23sy            relative     0.02     0.0     switch      2.0      best_fit
l45sy            relative     0.02     0.0     switch      2.0      best_fit
l6sy             relative     0.02     0.0     switch      2.0      best_fit
THTS             relative     0.02     0.0     switch      2.0      best_fit
THTR             relative     0.02     0.0     switch      2.0      best_fit
Rech             relative     0.02     0.0     switch      2.0      best_fit
EXTDP            relative     0.02     0.0     switch      2.0      best_fit
R_E23K           relative     0.02     0.0     switch      2.0      best_fit
R_D23K           relative     0.02     0.0     switch      2.0      best_fit
R_C23K           relative     0.02     0.0     switch      2.0      best_fit
R_E45K           relative     0.02     0.0     switch      2.0      best_fit
R_D45K           relative     0.02     0.0     switch      2.0      best_fit
R_C45K           relative     0.02     0.0     switch      2.0      best_fit
R_E6K            relative     0.02     0.0     switch      2.0      best_fit
R_D6K            relative     0.02     0.0     switch      2.0      best_fit
R_C6K            relative     0.02     0.0     switch      2.0      best_fit
RE23SY           relative     0.02     0.0     switch      2.0      best_fit
RD23SY           relative     0.02     0.0     switch      2.0      best_fit
RC23SY           relative     0.02     0.0     switch      2.0      best_fit
RE45SY           relative     0.02     0.0     switch      2.0      best_fit
RD45SY           relative     0.02     0.0     switch      2.0      best_fit
RC45SY           relative     0.02     0.0     switch      2.0      best_fit
RE6SY            relative     0.02     0.0     switch      2.0      best_fit
RD6SY            relative     0.02     0.0     switch      2.0      best_fit
RC6SY            relative     0.02     0.0     switch      2.0      best_fit
RETHTS           relative     0.02     0.0     switch      2.0      best_fit
RDTHTS           relative     0.02     0.0     switch      2.0      best_fit
RCTHTS           relative     0.02     0.0     switch      2.0      best_fit
RETHTR           relative     0.02     0.0     switch      2.0      best_fit
RDTHTR           relative     0.02     0.0     switch      2.0      best_fit
RCTHTR           relative     0.02     0.0     switch      2.0      best_fit
bedleakance      relative     0.02     0.0     switch      2.0      best_fit
* parameter data
cr1_str_k                  log    factor   0.9620934      1.000000e-4         100000    channelseep    1.0000    0.0000         1
clrcrk_str_k               log    factor    1.973653      1.000000e-4         100000    channelseep    1.0000    0.0000         1
cr2_str_k                  log    factor    1.023086      1.000000e-4         100000    channelseep    1.0000    0.0000         1
mxdch1_str_k               log    factor    1.134375      1.000000e-4         100000    channelseep    1.0000    0.0000         1
mxdch2_str_k               log    factor   0.8066761      1.000000e-4         100000    channelseep    1.0000    0.0000         1
kngcyn_str_k               log    factor    1.133271      1.000000e-4         100000    channelseep    1.0000    0.0000         1
ashcyn_str_k               log    factor    1.133689      1.000000e-4         100000    channelseep    1.0000    0.0000         1
vicee_str_k                log    factor   0.9766960      1.000000e-4         100000    channelseep    1.0000    0.0000         1
kngash_str_k               log    factor   0.8618825      1.000000e-4         100000    channelseep    1.0000    0.0000         1
outflw_str_k               log    factor    1.035112      1.000000e-4         100000    channelseep    1.0000    0.0000         1
cr3_str_k                  log    factor    6.128368      1.000000e-4         100000    channelseep    1.0000    0.0000         1
cr4_str_k                  log    factor    6.369316      1.000000e-4         100000    channelseep    1.0000    0.0000         1
cr5_str_k                fixed    factor   0.9556020      1.000000e-4         100000    channelseep    1.0000    0.0000         1
cr6_str_k                fixed    factor   0.9854080      1.000000e-4         100000    channelseep    1.0000    0.0000         1
cr7_str_k                fixed    factor    1.162680      1.000000e-4         100000    channelseep    1.0000    0.0000         1
rsecnl_str_k             fixed    factor    1.016740      1.000000e-4         100000    channelseep    1.0000    0.0000         1
cr8_str_k                fixed    factor   0.9585660      1.000000e-4         100000    channelseep    1.0000    0.0000         1
cr9_str_k                fixed    factor   0.9705110      1.000000e-4         100000    channelseep    1.0000    0.0000         1
cr10_str_k               fixed    factor    1.207080      1.000000e-4         100000    channelseep    1.0000    0.0000         1
fshcnl_str_k             fixed    factor    1.061500      1.000000e-4         100000    channelseep    1.0000    0.0000         1
cr11_str_k               fixed    factor   0.8525170      1.00e-04         100000    channelseep         1         0         1
cr12_str_k               fixed    factor   0.9709550      1.00e-04         100000    channelseep         1         0         1
baroni_str_k             fixed    factor   0.9878650      1.00e-04         100000    channelseep         1         0         1
eldrdo_str_k             fixed    factor   0.8571450      1.00e-04         100000    channelseep         1         0         1
crdeli_str_k             fixed    factor   0.9943970      1.00e-04         100000    channelseep         1         0         1
cr13_str_k               fixed    factor    1.170680      1.00e-04         100000    channelseep         1         0         1
qulici_str_k             fixed    factor    1.119120      1.00e-04         100000    channelseep         1         0         1
quloxb_str_k             fixed    factor   0.7350170      1.00e-04         100000    channelseep         1         0         1
cr14_str_k               fixed    factor   0.8006030      1.00e-04         100000    channelseep         1         0         1
geedch_str_k             fixed    factor    1.160470      1.00e-04         100000    channelseep         1         0         1
geeext_str_k             fixed    factor    1.064860      1.00e-04         100000    channelseep         1         0         1
cr15_str_k               fixed    factor   0.5909500      1.00e-04         100000    channelseep         1         0         1
cr16_str_k               fixed    factor   0.4974830      1.00e-04         100000    channelseep         1         0         1
sixmil_str_k             fixed    factor    1.134870      1.00e-04         100000    channelseep         1         0         1
sixrtn_str_k             fixed    factor    1.021620      1.00e-04         100000    channelseep         1         0         1
cr17_str_k               fixed    factor   0.6665120      1.00e-04         100000    channelseep         1         0         1
kchdch_str_k             fixed    factor   0.9265110      1.00e-04         100000    channelseep         1         0         1
cr18_str_k               fixed    factor   0.7772010      1.00e-04         100000    channelseep         1         0         1
cr19_str_k               fixed    factor    1.033330      1.00e-04         100000    channelseep         1         0         1
hghhwd_str_k             fixed    factor   4.0091240E-03  1.000000e-4         100000    channelseep    1.0000    0.0000         1
cr20_str_k               fixed    factor   5.0630420E-03  1.000000e-4         100000    channelseep    1.0000    0.0000         1
bcklnd_str_k             fixed    factor    1.340120      1.000000e-4         100000    channelseep    1.0000    0.0000         1
cr21_str_k               fixed    factor    1.044650      1.000000e-4         100000    channelseep    1.0000    0.0000         1
cr22_str_k               fixed    factor   0.3807840      1.000000e-4         100000    channelseep    1.0000    0.0000         1
ramsey_str_k             fixed    factor   0.2663170      1.000000e-4         100000    channelseep    1.0000    0.0000         1
cr23_str_k               fixed    factor    0.000000      0.000000e-0         100000    channelseep    1.0000    0.0000         1
cr24_str_k               fixed    factor   0.9421270      1.000000e-4         100000    channelseep    1.0000    0.0000         1
eag001_l23_k              tied    factor    8.354768      1.000000e-4    1.000000e+5      l23k    1.0000    0.0000         1
eag002_l23_k              tied    factor    12.38851      1.000000e-4    1.000000e+5      l23k    1.0000    0.0000         1
eag003_l23_k              tied    factor    6.172067      1.000000e-4    1.000000e+5      l23k    1.0000    0.0000         1
eag004_l23_k              tied    factor    1.306282      1.000000e-4    1.000000e+5      l23k    1.0000    0.0000         1
eag005_l23_k              tied    factor    3.552794      1.000000e-4    1.000000e+5      l23k    1.0000    0.0000         1
eag006_l23_k              tied    factor    2.442599      1.000000e-4    1.000000e+5      l23k    1.0000    0.0000         1
eag007_l23_k              tied    factor    14.75342      1.000000e-4    1.000000e+5      l23k    1.0000    0.0000         1
eag008_l23_k              tied    factor    7.747359      1.000000e-4    1.000000e+5      l23k    1.0000    0.0000         1
eag009_l23_k              tied    factor    11.26267      1.000000e-4    1.000000e+5      l23k    1.0000    0.0000         1
eag010_l23_k              tied    factor    12.85686      1.000000e-4    1.000000e+5      l23k    1.0000    0.0000         1
eag011_l23_k              tied    factor    4.351700      1.000000e-4    1.000000e+5      l23k    1.0000    0.0000         1
eag012_l23_k              tied    factor   0.9846800      1.000000e-4    1.000000e+5      l23k    1.0000    0.0000         1
eag013_l23_k              tied    factor  102.853382      1.000000e-4    1.000000e+5      l23k    1.0000    0.0000         1
eag014_l23_k              tied    factor  102.863547      1.000000e-4    1.000000e+5      l23k    1.0000    0.0000         1
eag015_l23_k              tied    factor    26.35288      1.000000e-4    1.000000e+5      l23k    1.0000    0.0000         1
eag016_l23_k              tied    factor    2.484122      1.000000e-4    1.000000e+5      l23k    1.0000    0.0000         1
eag017_l23_k              tied    factor    1.064136      1.000000e-4    1.000000e+5      l23k    1.0000    0.0000         1
eag018_l23_k              tied    factor   0.9200018      1.000000e-4    1.000000e+5      l23k    1.0000    0.0000         1
eag019_l23_k              tied    factor   0.9184186      1.000000e-4    1.000000e+5      l23k    1.0000    0.0000         1
eag020_l23_k              tied    factor   0.7051899      1.000000e-4    1.000000e+5      l23k    1.0000    0.0000         1
eag021_l23_k              tied    factor  101.074471      1.000000e-4    1.000000e+5      l23k    1.0000    0.0000         1
eag022_l23_k              tied    factor  101.134888      1.000000e-4    1.000000e+5      l23k    1.0000    0.0000         1
eag023_l23_k              tied    factor    8.460783      1.000000e-4    1.000000e+5      l23k    1.0000    0.0000         1
eag024_l23_k              tied    factor    2.400577      1.000000e-4    1.000000e+5      l23k    1.0000    0.0000         1
eag025_l23_k              tied    factor    1.607285      1.000000e-4    1.000000e+5      l23k    1.0000    0.0000         1
eag026_l23_k              tied    factor    1.097082      1.000000e-4    1.000000e+5      l23k    1.0000    0.0000         1
eag027_l23_k              tied    factor    10.00968      1.000000e-4    1.000000e+5      l23k    1.0000    0.0000         1
eag028_l23_k              tied    factor    9.983659      1.000000e-4    1.000000e+5      l23k    1.0000    0.0000         1
eag029_l23_k              tied    factor    1.127673      1.000000e-4    1.000000e+5      l23k    1.0000    0.0000         1
eag030_l23_k              tied    factor    3.227931      1.000000e-4    1.000000e+5      l23k    1.0000    0.0000         1
eag031_l23_k              tied    factor    1.468563      1.000000e-4    1.000000e+5      l23k    1.0000    0.0000         1
eag032_l23_k              tied    factor    11.09977      1.000000e-4    1.000000e+5      l23k    1.0000    0.0000         1
eag033_l23_k              tied    factor    16.22784      1.000000e-4    1.000000e+5      l23k    1.0000    0.0000         1
eag034_l23_k              tied    factor    6.887670      1.000000e-4    1.000000e+5      l23k    1.0000    0.0000         1
eag035_l23_k              tied    factor    9.228239      1.000000e-4    1.000000e+5      l23k    1.0000    0.0000         1
eag036_l23_k              tied    factor    12.06096      1.000000e-4    1.000000e+5      l23k    1.0000    0.0000         1
eag037_l23_k              tied    factor    12.40226      1.000000e-4    1.000000e+5      l23k    1.0000    0.0000         1
eag038_l23_k              tied    factor    10.29726      1.000000e-4    1.000000e+5      l23k    1.0000    0.0000         1
eag039_l23_k              tied    factor    10.62564      1.000000e-4    1.000000e+5      l23k    1.0000    0.0000         1
eag040_l23_k              tied    factor    5.311472      1.000000e-4    1.000000e+5      l23k    1.0000    0.0000         1
eag041_l23_k              tied    factor    10.06273      1.000000e-4    1.000000e+5      l23k    1.0000    0.0000         1
eag042_l23_k              tied    factor    9.463757      1.000000e-4    1.000000e+5      l23k    1.0000    0.0000         1
eag043_l23_k              tied    factor    7.676408      1.000000e-4    1.000000e+5      l23k    1.0000    0.0000         1
eag044_l23_k              tied    factor    9.793876      1.000000e-4    1.000000e+5      l23k    1.0000    0.0000         1
eag045_l23_k              tied    factor    8.818267      1.000000e-4    1.000000e+5      l23k    1.0000    0.0000         1
eag046_l23_k              tied    factor    8.761008      1.000000e-4    1.000000e+5      l23k    1.0000    0.0000         1
eag047_l23_k              tied    factor    10.10369      1.000000e-4    1.000000e+5      l23k    1.0000    0.0000         1
eag048_l23_k              tied    factor    8.445122      1.000000e-4    1.000000e+5      l23k    1.0000    0.0000         1
eag049_l23_k              tied    factor    8.121771      1.000000e-4    1.000000e+5      l23k    1.0000    0.0000         1
eag050_l23_k              tied    factor    7.458417      1.000000e-4    1.000000e+5      l23k    1.0000    0.0000         1
eag051_l23_k              tied    factor    4.254911      1.000000e-4    1.000000e+5      l23k    1.0000    0.0000         1
eag052_l23_k              tied    factor    8.859808      1.000000e-4    1.000000e+5      l23k    1.0000    0.0000         1
eag053_l23_k              tied    factor    10.36279      1.000000e-4    1.000000e+5      l23k    1.0000    0.0000         1
eag054_l23_k              tied    factor    8.340885      1.000000e-4    1.000000e+5      l23k    1.0000    0.0000         1
eag055_l23_k              tied    factor    9.849965      1.000000e-4    1.000000e+5      l23k    1.0000    0.0000         1
eag056_l23_k              tied    factor    9.520994      1.000000e-4    1.000000e+5      l23k    1.0000    0.0000         1
eag057_l23_k              tied    factor    8.901559      1.000000e-4    1.000000e+5      l23k    1.0000    0.0000         1
eag058_l23_k              tied    factor    9.320966      1.000000e-4    1.000000e+5      l23k    1.0000    0.0000         1
eag059_l23_k              tied    factor    7.462962      1.000000e-4    1.000000e+5      l23k    1.0000    0.0000         1
eag060_l23_k              tied    factor    8.479938      1.000000e-4    1.000000e+5      l23k    1.0000    0.0000         1
eag061_l23_k              tied    factor    11.12506      1.000000e-4    1.000000e+5      l23k    1.0000    0.0000         1
eag062_l23_k              tied    factor    9.473514      1.000000e-4    1.000000e+5      l23k    1.0000    0.0000         1
day001_l23_k             fixed    factor    10.28790      1.00e-04       1.00e+05      l23k         1         0         1
day002_l23_k             fixed    factor    9.812930      1.00e-04       1.00e+05      l23k         1         0         1
day003_l23_k             fixed    factor    10.23400      1.00e-04       1.00e+05      l23k         1         0         1
day004_l23_k             fixed    factor    9.952800      1.00e-04       1.00e+05      l23k         1         0         1
day005_l23_k             fixed    factor    9.968380      1.00e-04       1.00e+05      l23k         1         0         1
day006_l23_k             fixed    factor    9.786040      1.00e-04       1.00e+05      l23k         1         0         1
day007_l23_k             fixed    factor    10.05680      1.00e-04       1.00e+05      l23k         1         0         1
day008_l23_k             fixed    factor    10.01190      1.00e-04       1.00e+05      l23k         1         0         1
day009_l23_k             fixed    factor    10.22270      1.00e-04       1.00e+05      l23k         1         0         1
day010_l23_k             fixed    factor    10.03840      1.00e-04       1.00e+05      l23k         1         0         1
day011_l23_k             fixed    factor    9.898710      1.00e-04       1.00e+05      l23k         1         0         1
day012_l23_k             fixed    factor    10.25980      1.00e-04       1.00e+05      l23k         1         0         1
day013_l23_k             fixed    factor    10.27180      1.00e-04       1.00e+05      l23k         1         0         1
day014_l23_k             fixed    factor    9.796390      1.00e-04       1.00e+05      l23k         1         0         1
day015_l23_k             fixed    factor    9.799030      1.00e-04       1.00e+05      l23k         1         0         1
day016_l23_k             fixed    factor    9.985930      1.00e-04       1.00e+05      l23k         1         0         1
day017_l23_k             fixed    factor    10.12230      1.00e-04       1.00e+05      l23k         1         0         1
day018_l23_k             fixed    factor    9.962800      1.00e-04       1.00e+05      l23k         1         0         1
day019_l23_k             fixed    factor    9.721420      1.00e-04       1.00e+05      l23k         1         0         1
day020_l23_k             fixed    factor    9.278290      1.00e-04       1.00e+05      l23k         1         0         1
day021_l23_k             fixed    factor   40.669690      1.00e-04       1.00e+05      l23k         1         0         1
day022_l23_k             fixed    factor    30.36840      1.00e-04       1.00e+05      l23k         1         0         1
day023_l23_k             fixed    factor    9.794400      1.00e-04       1.00e+05      l23k         1         0         1
day024_l23_k             fixed    factor    9.886600      1.00e-04       1.00e+05      l23k         1         0         1
day025_l23_k             fixed    factor    10.04360      1.00e-04       1.00e+05      l23k         1         0         1
day026_l23_k             fixed    factor    9.763790      1.00e-04       1.00e+05      l23k         1         0         1
day027_l23_k             fixed    factor    8.078470      1.00e-04       1.00e+05      l23k         1         0         1
day028_l23_k             fixed    factor    10.02550      1.00e-04       1.00e+05      l23k         1         0         1
day029_l23_k             fixed    factor    10.06960      1.00e-04       1.00e+05      l23k         1         0         1
day030_l23_k             fixed    factor    9.896250      1.00e-04       1.00e+05      l23k         1         0         1
day031_l23_k             fixed    factor    10.13120      1.00e-04       1.00e+05      l23k         1         0         1
day032_l23_k             fixed    factor    9.745060      1.00e-04       1.00e+05      l23k         1         0         1
day033_l23_k             fixed    factor    9.966320      1.00e-04       1.00e+05      l23k         1         0         1
day034_l23_k             fixed    factor    9.786740      1.00e-04       1.00e+05      l23k         1         0         1
day035_l23_k             fixed    factor    10.09130      1.00e-04       1.00e+05      l23k         1         0         1
day036_l23_k             fixed    factor    10.16600      1.00e-04       1.00e+05      l23k         1         0         1
day037_l23_k             fixed    factor    9.918980      1.00e-04       1.00e+05      l23k         1         0         1
day038_l23_k             fixed    factor    9.915530      1.00e-04       1.00e+05      l23k         1         0         1
day039_l23_k             fixed    factor    9.834880      1.00e-04       1.00e+05      l23k         1         0         1
day040_l23_k             fixed    factor    9.712890      1.00e-04       1.00e+05      l23k         1         0         1
day041_l23_k             fixed    factor    10.06020      1.00e-04       1.00e+05      l23k         1         0         1
day042_l23_k             fixed    factor    10.05790      1.00e-04       1.00e+05      l23k         1         0         1
day043_l23_k             fixed    factor    9.995420      1.00e-04       1.00e+05      l23k         1         0         1
day044_l23_k             fixed    factor    10.16670      1.00e-04       1.00e+05      l23k         1         0         1
day045_l23_k             fixed    factor    9.567780      1.00e-04       1.00e+05      l23k         1         0         1
day046_l23_k             fixed    factor    10.05030      1.00e-04       1.00e+05      l23k         1         0         1
day047_l23_k             fixed    factor    10.11420      1.00e-04       1.00e+05      l23k         1         0         1
day048_l23_k             fixed    factor    10.37620      1.00e-04       1.00e+05      l23k         1         0         1
day049_l23_k             fixed    factor    6.579830      1.00e-04       1.00e+05      l23k         1         0         1
day050_l23_k             fixed    factor    8.807400      1.00e-04       1.00e+05      l23k         1         0         1
day051_l23_k             fixed    factor    9.395710      1.00e-04       1.00e+05      l23k         1         0         1
day052_l23_k             fixed    factor    9.936880      1.00e-04       1.00e+05      l23k         1         0         1
day053_l23_k             fixed    factor    10.37130      1.00e-04       1.00e+05      l23k         1         0         1
day054_l23_k             fixed    factor    9.981160      1.00e-04       1.00e+05      l23k         1         0         1
day055_l23_k             fixed    factor    169.9040      1.00e-04       1.00e+05      l23k         1         0         1
day056_l23_k             fixed    factor    146.2200      1.00e-04       1.00e+05      l23k         1         0         1
day057_l23_k             fixed    factor    9.632960      1.00e-04       1.00e+05      l23k         1         0         1
day058_l23_k             fixed    factor    10.11620      1.00e-04       1.00e+05      l23k         1         0         1
day059_l23_k             fixed    factor    10.23990      1.00e-04       1.00e+05      l23k         1         0         1
day060_l23_k             fixed    factor    9.961000      1.00e-04       1.00e+05      l23k         1         0         1
day061_l23_k             fixed    factor    309.6340      1.00e-04       1.00e+05      l23k         1         0         1
day062_l23_k             fixed    factor    10.04370      1.00e-04       1.00e+05      l23k         1         0         1
day063_l23_k             fixed    factor    150.9490      1.00e-04       1.00e+05      l23k         1         0         1
day064_l23_k             fixed    factor    9.984260      1.00e-04       1.00e+05      l23k         1         0         1
day065_l23_k             fixed    factor    9.948430      1.00e-04       1.00e+05      l23k         1         0         1
day066_l23_k             fixed    factor    9.948710      1.00e-04       1.00e+05      l23k         1         0         1
day067_l23_k             fixed    factor     0.20500      1.00e-04       1.00e+05      l23k         1         0         1
day068_l23_k             fixed    factor    10.04970      1.00e-04       1.00e+05      l23k         1         0         1
day069_l23_k             fixed    factor    9.999900      1.00e-04       1.00e+05      l23k         1         0         1
day070_l23_k             fixed    factor    9.986640      1.00e-04       1.00e+05      l23k         1         0         1
day071_l23_k             fixed    factor    9.993830      1.00e-04       1.00e+05      l23k         1         0         1
day072_l23_k             fixed    factor    9.925770      1.00e-04       1.00e+05      l23k         1         0         1
day073_l23_k             fixed    factor     0.04110      1.00e-04       1.00e+05      l23k         1         0         1
day074_l23_k             fixed    factor    9.870510      1.00e-04       1.00e+05      l23k         1         0         1
day075_l23_k             fixed    factor    9.905600      1.00e-04       1.00e+05      l23k         1         0         1
day076_l23_k             fixed    factor    10.16730      1.00e-04       1.00e+05      l23k         1         0         1
day077_l23_k             fixed    factor    10.05870      1.00e-04       1.00e+05      l23k         1         0         1
day078_l23_k             fixed    factor    9.741910      1.00e-04       1.00e+05      l23k         1         0         1
day079_l23_k             fixed    factor    10.03570      1.00e-04       1.00e+05      l23k         1         0         1
day080_l23_k             fixed    factor    10.01280      1.00e-04       1.00e+05      l23k         1         0         1
day081_l23_k             fixed    factor    9.847940      1.00e-04       1.00e+05      l23k         1         0         1
day082_l23_k             fixed    factor    9.769480      1.00e-04       1.00e+05      l23k         1         0         1
day083_l23_k             fixed    factor    10.16680      1.00e-04       1.00e+05      l23k         1         0         1
day084_l23_k             fixed    factor    9.912370      1.00e-04       1.00e+05      l23k         1         0         1
day085_l23_k             fixed    factor    10.04960      1.00e-04       1.00e+05      l23k         1         0         1
day086_l23_k             fixed    factor    10.01470      1.00e-04       1.00e+05      l23k         1         0         1
day087_l23_k             fixed    factor    9.986540      1.00e-04       1.00e+05      l23k         1         0         1
day088_l23_k             fixed    factor    10.01390      1.00e-04       1.00e+05      l23k         1         0         1
day089_l23_k             fixed    factor    9.931120      1.00e-04       1.00e+05      l23k         1         0         1
day090_l23_k             fixed    factor    10.01250      1.00e-04       1.00e+05      l23k         1         0         1
day091_l23_k             fixed    factor    9.797150      1.00e-04       1.00e+05      l23k         1         0         1
day092_l23_k             fixed    factor    9.946230      1.00e-04       1.00e+05      l23k         1         0         1
day093_l23_k             fixed    factor    10.00340      1.00e-04       1.00e+05      l23k         1         0         1
chc001_l23_k             fixed    factor    11.13160      1.000000e-4    1.000000e+5      l23k    1.0000    0.0000         1
chc002_l23_k             fixed    factor    8.734090      1.000000e-4    1.000000e+5      l23k    1.0000    0.0000         1
chc003_l23_k             fixed    factor    10.06980      1.000000e-4    1.000000e+5      l23k    1.0000    0.0000         1
chc004_l23_k             fixed    factor    9.873670      1.000000e-4    1.000000e+5      l23k    1.0000    0.0000         1
chc005_l23_k             fixed    factor    12.98200      1.000000e-4    1.000000e+5      l23k    1.0000    0.0000         1
chc006_l23_k             fixed    factor    6.479250      1.000000e-4    1.000000e+5      l23k    1.0000    0.0000         1
chc007_l23_k             fixed    factor    9.158470      1.000000e-4    1.000000e+5      l23k    1.0000    0.0000         1
chc008_l23_k             fixed    factor    10.00000      1.000000e-4    1.000000e+5      l23k    1.0000    0.0000         1
chc009_l23_k             fixed    factor    10.00000      1.000000e-4    1.000000e+5      l23k    1.0000    0.0000         1
chc010_l23_k             fixed    factor    10.00000      1.000000e-4    1.000000e+5      l23k    1.0000    0.0000         1
chc011_l23_k             fixed    factor    10.00000      1.000000e-4    1.000000e+5      l23k    1.0000    0.0000         1