pcf
* control data
restart  estimation
 7870   21492     12   10393    19
   12       6   single   point     1   0   0
  5.0   2.0   0.3  0.03    10
  3.0   3.0 0.001  0
  0.1
    0  0.01     3     3  0.01     3
    1     1     1
* parameter groups
ChannelSeep      relative     0.01     0.0     switch      2.0      parabolic
Lay_2_3_K        relative     0.01     0.0     switch      2.0      parabolic
Lay_4_5_K        relative     0.01     0.0     switch      2.0      parabolic
Lay_6_K          relative     0.01     0.0     switch      2.0      parabolic
Lay_2_3_SY       relative     0.01     0.0     switch      2.0      parabolic
Lay_4_5_SY       relative     0.01     0.0     switch      2.0      parabolic
Lay_6_SY         relative     0.01     0.0     switch      2.0      parabolic
THTS             relative     0.01     0.0     switch      2.0      parabolic
THTR             relative     0.01     0.0     switch      2.0      parabolic
BedLeakance      relative     0.01     0.0     switch      2.0      parabolic
Rech             relative     0.01     0.0     switch      2.0      parabolic
EXTDP            relative     0.01     0.0     switch      2.0      parabolic
* parameter data
cr1_str_k              log   factor        1.00       1.000000E-4          100000 ChannelSeep     1.0000        0.0000      1
clrcrk_str_k           log   factor        1.00       1.000000E-4          100000 ChannelSeep     1.0000        0.0000      1
cr2_str_k              log   factor        1.00       1.000000E-4          100000 ChannelSeep     1.0000        0.0000      1
mxdch1_str_k           log   factor        1.00       1.000000E-4          100000 ChannelSeep     1.0000        0.0000      1
mxdch2_str_k           log   factor        1.00       1.000000E-4          100000 ChannelSeep     1.0000        0.0000      1
kngcyn_str_k           log   factor        1.00       1.000000E-4          100000 ChannelSeep     1.0000        0.0000      1
ashcyn_str_k           log   factor        1.00       1.000000E-4          100000 ChannelSeep     1.0000        0.0000      1
vicee_str_k            log   factor        1.00       1.000000E-4          100000 ChannelSeep     1.0000        0.0000      1
kngash_str_k           log   factor        1.00       1.000000E-4          100000 ChannelSeep     1.0000        0.0000      1
outflw_str_k           log   factor        1.00       1.000000E-4          100000 ChannelSeep     1.0000        0.0000      1
cr3_str_k              log   factor        1.00       1.000000E-4          100000 ChannelSeep     1.0000        0.0000      1
cr4_str_k              log   factor        1.00       1.000000E-4          100000 ChannelSeep     1.0000        0.0000      1
cr5_str_k              log   factor        1.00       1.000000E-4          100000 ChannelSeep     1.0000        0.0000      1
cr6_str_k              log   factor        1.00       1.000000E-4          100000 ChannelSeep     1.0000        0.0000      1
cr7_str_k              log   factor        1.00       1.000000E-4          100000 ChannelSeep     1.0000        0.0000      1
rsecnl_str_k           log   factor        1.00       1.000000E-4          100000 ChannelSeep     1.0000        0.0000      1
cr8_str_k              log   factor        1.00       1.000000E-4          100000 ChannelSeep     1.0000        0.0000      1
cr9_str_k              log   factor        1.00       1.000000E-4          100000 ChannelSeep     1.0000        0.0000      1
cr10_str_k             log   factor        1.00       1.000000E-4          100000 ChannelSeep     1.0000        0.0000      1
fshcnl_str_k           log   factor        1.00       1.000000E-4          100000 ChannelSeep     1.0000        0.0000      1
cr11_str_k             log   factor        1.00       1.000000E-4          100000 ChannelSeep     1.0000        0.0000      1
cr12_str_k             log   factor        1.00       1.000000E-4          100000 ChannelSeep     1.0000        0.0000      1
baroni_str_k           log   factor        1.00       1.000000E-4          100000 ChannelSeep     1.0000        0.0000      1
eldrdo_str_k           log   factor        1.00       1.000000E-4          100000 ChannelSeep     1.0000        0.0000      1
crdeli_str_k           log   factor        1.00       1.000000E-4          100000 ChannelSeep     1.0000        0.0000      1
cr13_str_k             log   factor        2.00       1.000000E-4          100000 ChannelSeep     1.0000        0.0000      1
qulici_str_k           log   factor        1.00       1.000000E-4          100000 ChannelSeep     1.0000        0.0000      1
quloxb_str_k           log   factor        1.00       1.000000E-4          100000 ChannelSeep     1.0000        0.0000      1
cr14_str_k             log   factor        1.00       1.000000E-4          100000 ChannelSeep     1.0000        0.0000      1
geedch_str_k           log   factor        1.00       1.000000E-4          100000 ChannelSeep     1.0000        0.0000      1
geeext_str_k           log   factor        1.00       1.000000E-4          100000 ChannelSeep     1.0000        0.0000      1
cr15_str_k             log   factor        1.00       1.000000E-4          100000 ChannelSeep     1.0000        0.0000      1
cr16_str_k             log   factor        1.00       1.000000E-4          100000 ChannelSeep     1.0000        0.0000      1
sixmil_str_k           log   factor        1.00       1.000000E-4          100000 ChannelSeep     1.0000        0.0000      1
sixrtn_str_k           log   factor        1.00       1.000000E-4          100000 ChannelSeep     1.0000        0.0000      1
cr17_str_k             log   factor        1.00       1.000000E-4          100000 ChannelSeep     1.0000        0.0000      1
kchdch_str_k           log   factor        1.00       1.000000E-4          100000 ChannelSeep     1.0000        0.0000      1
cr18_str_k             log   factor        1.00       1.000000E-4          100000 ChannelSeep     1.0000        0.0000      1
cr19_str_k             log   factor        1.00       1.000000E-4          100000 ChannelSeep     1.0000        0.0000      1
hghhwd_str_k           log   factor        1.00       1.000000E-4          100000 ChannelSeep     1.0000        0.0000      1
cr20_str_k             log   factor        1.00       1.000000E-4          100000 ChannelSeep     1.0000        0.0000      1
bcklnd_str_k           log   factor        1.00       1.000000E-4          100000 ChannelSeep     1.0000        0.0000      1
cr21_str_k             log   factor        1.00       1.000000E-4          100000 ChannelSeep     1.0000        0.0000      1
cr22_str_k             log   factor        1.00       1.000000E-4          100000 ChannelSeep     1.0000        0.0000      1
ramsey_str_k           log   factor        1.00       1.000000E-4          100000 ChannelSeep     1.0000        0.0000      1
cr23_str_k             log   factor        1.00       1.000000E-4          100000 ChannelSeep     1.0000        0.0000      1
cr24_str_k             log   factor        1.00       1.000000E-4          100000 ChannelSeep     1.0000        0.0000      1
chc001_l23_k           log   factor       10.0000     1.000000E-4    1.000000E+5  Lay_2_3_K       1.0000        0.0000      1
chc002_l23_k           log   factor       10.0000     1.000000E-4    1.000000E+5  Lay_2_3_K       1.0000        0.0000      1
chc003_l23_k           log   factor       10.0000     1.000000E-4    1.000000E+5  Lay_2_3_K       1.0000        0.0000      1
chc004_l23_k           log   factor       10.0000     1.000000E-4    1.000000E+5  Lay_2_3_K       1.0000        0.0000      1
chc005_l23_k           log   factor       10.0000     1.000000E-4    1.000000E+5  Lay_2_3_K       1.0000        0.0000      1
chc006_l23_k           log   factor       10.0000     1.000000E-4    1.000000E+5  Lay_2_3_K       1.0000        0.0000      1
chc007_l23_k           log   factor       10.0000     1.000000E-4    1.000000E+5  Lay_2_3_K       1.0000        0.0000      1
chc008_l23_k           log   factor       10.0000     1.000000E-4    1.000000E+5  Lay_2_3_K       1.0000        0.0000      1
chc009_l23_k           log   factor       10.0000     1.000000E-4    1.000000E+5  Lay_2_3_K       1.0000        0.0000      1
chc010_l23_k           log   factor       10.0000     1.000000E-4    1.000000E+5  Lay_2_3_K       1.0000        0.0000      1
chc011_l23_k           log   factor       10.0000     1.000000E-4    1.000000E+5  Lay_2_3_K       1.0000        0.0000      1
chc012_l23_k           log   factor       12.0000     1.000000E-4    1.000000E+5  Lay_2_3_K       1.0000        0.0000      1
chc013_l23_k           log   factor       10.0000     1.000000E-4    1.000000E+5  Lay_2_3_K       1.0000        0.0000      1
chc014_l23_k           log   factor       10.0000     1.000000E-4    1.000000E+5  Lay_2_3_K       1.0000        0.0000      1
chc015_l23_k           log   factor       10.0000     1.000000E-4    1.000000E+5  Lay_2_3_K       1.0000        0.0000      1
chc016_l23_k           log   factor       10.0000     1.000000E-4    1.000000E+5  Lay_2_3_K       1.0000        0.0000      1
chc017_l23_k           log   factor       10.0000     1.000000E-4    1.000000E+5  Lay_2_3_K       1.0000        0.0000      1
chc018_l23_k           log   factor       10.0000     1.000000E-4    1.000000E+5  Lay_2_3_K       1.0000        0.0000      1
chc019_l23_k           log   factor       10.0000     1.000000E-4    1.000000E+5  Lay_2_3_K       1.0000        0.0000      1
chc020_l23_k           log   factor       10.0000     1.000000E-4    1.000000E+5  Lay_2_3_K       1.0000        0.0000      1
chc021_l23_k           log   factor       10.0000     1.000000E-4    1.000000E+5  Lay_2_3_K       1.0000        0.0000      1
chc022_l23_k           log   factor       10.0000     1.000000E-4    1.000000E+5  Lay_2_3_K       1.0000        0.0000      1
chc023_l23_k           log   factor       10.0000     1.000000E-4    1.000000E+5  Lay_2_3_K       1.0000        0.0000      1
chc024_l23_k           log   factor       10.0000     1.000000E-4    1.000000E+5  Lay_2_3_K       1.0000        0.0000      1
chc025_l23_k           log   factor       10.0000     1.000000E-4    1.000000E+5  Lay_2_3_K       1.0000        0.0000      1
chc026_l23_k           log   factor       10.0000     1.000000E-4    1.000000E+5  Lay_2_3_K       1.0000        0.0000      1
chc027_l23_k           log   factor       10.0000     1.000000E-4    1.000000E+5  Lay_2_3_K       1.0000        0.0000      1
chc028_l23_k           log   factor       10.0000     1.000000E-4    1.000000E+5  Lay_2_3_K       1.0000        0.0000      1
chc029_l23_k           log   factor       10.0000     1.000000E-4    1.000000E+5  Lay_2_3_K       1.0000        0.0000      1
chc030_l23_k           log   factor       10.0000     1.000000E-4    1.000000E+5  Lay_2_3_K       1.0000        0.0000      1
chc031_l23_k           log   factor       10.0000     1.000000E-4    1.000000E+5  Lay_2_3_K       1.0000        0.0000      1
chc032_l23_k           log   factor       10.0000     1.000000E-4    1.000000E+5  Lay_2_3_K       1.0000        0.0000      1
chc033_l23_k           log   factor       10.0000     1.000000E-4    1.000000E+5  Lay_2_3_K       1.0000        0.0000      1
chc034_l23_k           log   factor       10.0000     1.000000E-4    1.000000E+5  Lay_2_3_K       1.0000        0.0000      1
chc035_l23_k           log   factor       10.0000     1.000000E-4    1.000000E+5  Lay_2_3_K       1.0000        0.0000      1
chc036_l23_k           log   factor       10.0000     1.000000E-4    1.000000E+5  Lay_2_3_K       1.0000        0.0000      1
chc037_l23_k           log   factor       10.0000     1.000000E-4    1.000000E+5  Lay_2_3_K       1.0000        0.0000      1
chc038_l23_k           log   factor       10.0000     1.000000E-4    1.000000E+5  Lay_2_3_K       1.0000        0.0000      1
chc039_l23_k           log   factor       10.0000     1.000000E-4    1.000000E+5  Lay_2_3_K       1.0000        0.0000      1
chc040_l23_k           log   factor       10.0000     1.000000E-4    1.000000E+5  Lay_2_3_K       1.0000        0.0000      1
chc041_l23_k           log   factor       10.0000     1.000000E-4    1.000000E+5  Lay_2_3_K       1.0000        0.0000      1
chc042_l23_k           log   factor       10.0000     1.000000E-4    1.000000E+5  Lay_2_3_K       1.0000        0.0000      1
chc043_l23_k           log   factor       10.0000     1.000000E-4    1.000000E+5  Lay_2_3_K       1.0000        0.0000      1
chc044_l23_k           log   factor       10.0000     1.000000E-4    1.000000E+5  Lay_2_3_K       1.0000        0.0000      1
chc045_l23_k           log   factor       10.0000     1.000000E-4    1.000000E+5  Lay_2_3_K       1.0000        0.0000      1
chc046_l23_k           log   factor       10.0000     1.000000E-4    1.000000E+5  Lay_2_3_K       1.0000        0.0000      1
chc047_l23_k           log   factor       10.0000     1.000000E-4    1.000000E+5  Lay_2_3_K       1.0000        0.0000      1
chc048_l23_k           log   factor       10.0000     1.000000E-4    1.000000E+5  Lay_2_3_K       1.0000        0.0000      1
chc049_l23_k           log   factor       10.0000     1.000000E-4    1.000000E+5  Lay_2_3_K       1.0000        0.0000      1
chc050_l23_k           log   factor       10.0000     1.000000E-4    1.000000E+5  Lay_2_3_K       1.0000        0.0000      1
chc051_l23_k           log   factor       10.0000     1.000000E-4    1.000000E+5  Lay_2_3_K       1.0000        0.0000      1
chc052_l23_k           log   factor       10.0000     1.000000E-4    1.000000E+5  Lay_2_3_K       1.0000        0.0000      1
chc053_l23_k           log   factor       10.0000     1.000000E-4    1.000000E+5  Lay_2_3_K       1.0000        0.0000      1
chc054_l23_k           log   factor       10.0000     1.000000E-4    1.000000E+5  Lay_2_3_K       1.0000        0.0000      1
chc056_l23_k           log   factor       10.0000     1.000000E-4    1.000000E+5  Lay_2_3_K       1.0000        0.0000      1
chc057_l23_k           log   factor       10.0000     1.000000E-4    1.000000E+5  Lay_2_3_K       1.0000        0.0000      1
chc058_l23_k           log   factor       10.0000     1.000000E-4    1.000000E+5  Lay_2_3_K       1.0000        0.0000      1
chc059_l23_k           log   factor       10.0000     1.000000E-4    1.000000E+5  Lay_2_3_K       1.0000        0.0000      1
chc060_l23_k           log   factor       10.0000     1.000000E-4    1.000000E+5  Lay_2_3_K       1.0000        0.0000      1
chc061_l23_k           log   factor       10.0000     1.000000E-4    1.000000E+5  Lay_2_3_K       1.0000        0.0000      1
chc062_l23_k           log   factor       10.0000     1.000000E-4    1.000000E+5  Lay_2_3_K       1.0000        0.0000      1
chc063_l23_k           log   factor       10.0000     1.000000E-4    1.000000E+5  Lay_2_3_K       1.0000        0.0000      1
chc064_l23_k           log   factor       10.0000     1.000000E-4    1.000000E+5  Lay_2_3_K       1.0000        0.0000      1
chc065_l23_k           log   factor       10.0000     1.000000E-4    1.000000E+5  Lay_2_3_K       1.0000        0.0000      1
chc066_l23_k           log   factor       10.0000     1.000000E-4    1.000000E+5  Lay_2_3_K       1.0000        0.0000      1
chc067_l23_k           log   factor       10.0000     1.000000E-4    1.000000E+5  Lay_2_3_K       1.0000        0.0000      1
chc068_l23_k           log   factor       10.0000     1.000000E-4    1.000000E+5  Lay_2_3_K       1.0000        0.0000      1
chc069_l23_k           log   factor       10.0000     1.000000E-4    1.000000E+5  Lay_2_3_K       1.0000        0.0000      1
chc070_l23_k           log   factor       10.0000     1.000000E-4    1.000000E+5  Lay_2_3_K       1.0000        0.0000      1
chc071_l23_k           log   factor       10.0000     1.000000E-4    1.000000E+5  Lay_2_3_K       1.0000        0.0000      1
chc072_l23_k           log   factor       10.0000     1.000000E-4    1.000000E+5  Lay_2_3_K       1.0000        0.0000      1
chc073_l23_k           log   factor       10.0000     1.000000E-4    1.000000E+5  Lay_2_3_K       1.0000        0.0000      1
chc074_l23_k           log   factor       10.0000     1.000000E-4    1.000000E+5  Lay_2_3_K       1.0000        0.0000      1
chc075_l23_k           log   factor       10.0000     1.000000E-4    1.000000E+5  Lay_2_3_K       1.0000        0.0000      1
chc076_l23_k           log   factor       10.0000     1.000000E-4    1.000000E+5  Lay_2_3_K       1.0000        0.0000      1
chc077_l23_k           log   factor       10.0000     1.000000E-4    1.000000E+5  Lay_2_3_K       1.0000        0.0000      1
chc078_l23_k           log   factor       10.0000     1.000000E-4    1.000000E+5  Lay_2_3_K       1.0000        0.0000      1
chc079_l23_k           log   factor       10.0000     1.000000E-4    1.000000E+5  Lay_2_3_K       1.0000        0.0000      1
chc080_l23_k           log   factor       10.0000     1.000000E-4    1.000000E+5  Lay_2_3_K       1.0000        0.0000      1
chc081_l23_k           log   factor       10.0000     1.000000E-4    1.000000E+5  Lay_2_3_K       1.0000        0.0000      1
chc082_l23_k           log   factor       10.0000     1.000000E-4    1.000000E+5  Lay_2_3_K       1.0000        0.0000      1
chc083_l23_k           log   factor       10.0000     1.000000E-4    1.000000E+5  Lay_2_3_K       1.0000        0.0000      1
chc084_l23_k           log   factor       10.0000     1.000000E-4    1.000000E+5  Lay_2_3_K       1.0000        0.0000      1
chc085_l23_k           log   factor       10.0000     1.000000E-4    1.000000E+5  Lay_2_3_K       1.0000        0.0000      1
chc086_l23_k           log   factor       10.0000     1.000000E-4    1.000000E+5  Lay_2_3_K       1.0000        0.0000      1
chc087_l23_k           log   factor       10.0000     1.000000E-4    1.000000E+5  Lay_2_3_K       1.0000        0.0000      1
chc088_l23_k           log   factor       10.0000     1.000000E-4    1.000000E+5  Lay_2_3_K       1.0000        0.0000      1
chc089_l23_k           log   factor       10.0000     1.000000E-4    1.000000E+5  Lay_2_3_K       1.0000        0.0000      1
chc090_l23_k           log   factor       10.0000     1.000000E-4    1.000000E+5  Lay_2_3_K       1.0000        0.0000      1
chc091_l23_k           log   factor       10.0000     1.000000E-4    1.000000E+5  Lay_2_3_K       1.0000        0.0000      1
chc092_l23_k           log   factor       10.0000     1.000000E-4    1.000000E+5  Lay_2_3_K       1.0000        0.0000      1
chc093_l23_k           log   factor       10.0000     1.000000E-4    1.000000E+5  Lay_2_3_K       1.0000        0.0000      1
chc094_l23_k           log   factor       10.0000     1.000000E-4    1.000000E+5  Lay_2_3_K       1.0000        0.0000      1
chc095_l23_k           log   factor       10.0000     1.000000E-4    1.000000E+5  Lay_2_3_K       1.0000        0.0000      1
chc096_l23_k           log   factor       10.0000     1.000000E-4    1.000000E+5  Lay_2_3_K       1.0000        0.0000      1
chc097_l23_k           log   factor       10.0000     1.000000E-4    1.000000E+5  Lay_2_3_K       1.0000        0.0000      1
chc098_l23_k           log   factor       10.0000     1.000000E-4    1.000000E+5  Lay_2_3_K       1.0000        0.0000      1
chc099_l23_k           log   factor       10.0000     1.000000E-4    1.000000E+5  Lay_2_3_K       1.0000        0.0000      1
chc100_l23_k           log   factor       10.0000     1.000000E-4    1.000000E+5  Lay_2_3_K       1.0000        0.0000      1
chc101_l23_k           log   factor       10.0000     1.000000E-4    1.000000E+5  Lay_2_3_K       1.0000        0.0000      1
chc102_l23_k           log   factor       10.0000     1.000000E-4    1.000000E+5  Lay_2_3_K       1.0000        0.0000      1
chc103_l23_k           log   factor       10.0000     1.000000E-4    1.000000E+5  Lay_2_3_K       1.0000        0.0000      1
chc104_l23_k           log   factor       10.0000     1.000000E-4    1.000000E+5  Lay_2_3_K       1.0000        0.0000      1
chc105_l23_k           log   factor       10.0000     1.000000E-4    1.000000E+5  Lay_2_3_K       1.0000        0.0000      1
chc106_l23_k           log   factor       10.0000     1.000000E-4    1.000000E+5  Lay_2_3_K       1.0000        0.0000      1
chc107_l23_k           log   factor       10.0000     1.000000E-4    1.000000E+5  Lay_2_3_K       1.0000        0.0000      1
chc108_l23_k           log   factor       10.0000     1.000000E-4    1.000000E+5  Lay_2_3_K       1.0000        0.0000      1
chc109_l23_k           log   factor       10.0000     1.000000E-4    1.000000E+5  Lay_2_3_K       1.0000        0.0000      1
chc110_l23_k           log   factor       10.0000     1.000000E-4    1.000000E+5  Lay_2_3_K       1.0000        0.0000      1
chc111_l23_k           log   factor       10.0000     1.000000E-4    1.000000E+5  Lay_2_3_K       1.0000        0.0000      1
chc112_l23_k           log   factor       10.0000     1.000000E-4    1.000000E+5  Lay_2_3_K       1.0000        0.0000      1
chc113_l23_k           log   factor       10.0000     1.000000E-4    1.000000E+5  Lay_2_3_K       1.0000        0.0000      1
chc114_l23_k           log   factor       10.0000     1.000000E-4    1.000000E+5  Lay_2_3_K       1.0000        0.0000      1
chc115_l23_k           log   factor       10.0000     1.000000E-4    1.000000E+5  Lay_2_3_K       1.0000        0.0000      1
chc116_l23_k           log   factor       10.0000     1.000000E-4    1.000000E+5  Lay_2_3_K       1.0000        0.0000      1
chc117_l23_k           log   factor       10.0000     1.000000E-4    1.000000E+5  Lay_2_3_K       1.0000        0.0000      1
chc118_l23_k           log   factor       10.0000     1.000000E-4    1.000000E+5  Lay_2_3_K       1.0000        0.0000      1
chc119_l23_k           log   factor       10.0000     1.000000E-4    1.000000E+5  Lay_2_3_K       1.0000        0.0000      1
chc120_l23_k           log   factor       10.0000     1.000000E-4    1.000000E+5  Lay_2_3_K       1.0000        0.0000      1
chc121_l23_k           log   factor       10.0000     1.000000E-4    1.000000E+5  Lay_2_3_K       1.0000        0.0000      1
chc122_l23_k           log   factor       10.0000     1.000000E-4    1.000000E+5  Lay_2_3_K       1.0000        0.0000      1
chc123_l23_k           log   factor       10.0000     1.000000E-4    1.000000E+5  Lay_2_3_K       1.0000        0.0000      1
chc124_l23_k           log   factor       10.0000     1.000000E-4    1.000000E+5  Lay_2_3_K       1.0000        0.0000      1
chc125_l23_k           log   factor       10.0000     1.000000E-4    1.000000E+5  Lay_2_3_K       1.0000        0.0000      1
chc126_l23_k           log   factor       10.0000     1.000000E-4    1.000000E+5  Lay_2_3_K       1.0000        0.0000      1
chc127_l23_k           log   factor       10.0000     1.000000E-4    1.000000E+5  Lay_2_3_K       1.0000        0.0000      1
chc128_l23_k           log   factor       10.0000     1.000000E-4    1.000000E+5  Lay_2_3_K       1.0000        0.0000      1
chc129_l23_k           log   factor       10.0000     1.000000E-4    1.000000E+5  Lay_2_3_K       1.0000        0.0000      1
chc130_l23_k           log   factor       10.0000     1.000000E-4    1.000000E+5  Lay_2_3_K       1.0000        0.0000      1
chc131_l23_k           log   factor       10.0000     1.000000E-4    1.000000E+5  Lay_2_3_K       1.0000        0.0000      1
chc132_l23_k           log   factor       10.0000     1.000000E-4    1.000000E+5  Lay_2_3_K       1.0000        0.0000      1
chc133_l23_k           log   factor       10.0000     1.000000E-4    1.000000E+5  Lay_2_3_K       1.0000        0.0000      1
chc134_l23_k           log   factor       10.0000     1.000000E-4    1.000000E+5  Lay_2_3_K       1.0000        0.0000      1
chc135_l23_k           log   factor       10.0000     1.000000E-4    1.000000E+5  Lay_2_3_K       1.0000        0.0000      1
chc136_l23_k           log   factor       10.0000     1.000000E-4    1.000000E+5  Lay_2_3_K       1.0000        0.0000      1
chc137_l23_k           log   factor       10.0000     1.000000E-4    1.000000E+5  Lay_2_3_K       1.0000        0.0000      1
chc138_l23_k           log   factor       10.0000     1.000000E-4    1.000000E+5  Lay_2_3_K       1.0000        0.0000      1
chc139_l23_k           log   factor       10.0000     1.000000E-4    1.000000E+5  Lay_2_3_K       1.0000        0.0000      1
chc140_l23_k           log   factor       10.0000     1.000000E-4    1.000000E+5  Lay_2_3_K       1.0000        0.0000      1
chc141_l23_k           log   factor       10.0000     1.000000E-4    1.000000E+5  Lay_2_3_K       1.0000        0.0000      1
chc142_l23_k           log   factor       10.0000     1.000000E-4    1.000000E+5  Lay_2_3_K       1.0000        0.0000      1
chc143_l23_k           log   factor       10.0000     1.000000E-4    1.000000E+5  Lay_2_3_K       1.0000        0.0000      1
chc144_l23_k           log   factor       10.0000     1.000000E-4    1.000000E+5  Lay_2_3_K       1.0000        0.0000      1
chc145_l23_k           log   factor       10.0000     1.000000E-4    1.000000E+5  Lay_2_3_K       1.0000        0.0000      1
chc146_l23_k           log   factor       10.0000     1.000000E-4    1.000000E+5  Lay_2_3_K       1.0000        0.0000      1
chc147_l23_k           log   factor       10.0000     1.000000E-4    1.000000E+5  Lay_2_3_K       1.0000        0.0000      1
chc148_l23_k           log   factor       10.0000     1.000000E-4    1.000000E+5  Lay_2_3_K       1.0000        0.0000      1
chc149_l23_k           log   factor       10.0000     1.000000E-4    1.000000E+5  Lay_2_3_K       1.0000        0.0000      1
chc150_l23_k           log   factor       10.0000     1.000000E-4    1.000000E+5  Lay_2_3_K       1.0000        0.0000      1
chc151_l23_k           log   factor       10.0000     1.000000E-4    1.000000E+5  Lay_2_3_K       1.0000        0.0000      1
chc152_l23_k           log   factor       10.0000     1.000000E-4    1.000000E+5  Lay_2_3_K       1.0000        0.0000      1
chc153_l23_k           log   factor       10.0000     1.000000E-4    1.000000E+5  Lay_2_3_K       1.0000        0.0000      1
chc154_l23_k           log   factor       10.0000     1.000000E-4    1.000000E+5  Lay_2_3_K       1.0000        0.0000      1
chc155_l23_k           log   factor       10.0000     1.000000E-4    1.000000E+5  Lay_2_3_K       1.0000        0.0000      1
chc156_l23_k           log   factor       10.0000     1.000000E-4    1.000000E+5  Lay_2_3_K       1.0000        0.0000      1
chc157_l23_k           log   factor       10.0000     1.000000E-4    1.000000E+5  Lay_2_3_K       1.0000        0.0000      1
chc158_l23_k           log   factor       10.0000     1.000000E-4    1.000000E+5  Lay_2_3_K       1.0000        0.0000      1
chc159_l23_k           log   factor       10.0000     1.000000E-4    1.000000E+5  Lay_2_3_K       1.0000        0.0000      1
chc160_l23_k           log   factor       10.0000     1.000000E-4    1.000000E+5  Lay_2_3_K       1.0000        0.0000      1
chc161_l23_k           log   factor       10.0000     1.000000E-4    1.000000E+5  Lay_2_3_K       1.0000        0.0000      1
chc162_l23_k           log   factor       10.0000     1.000000E-4    1.000000E+5  Lay_2_3_K       1.0000        0.0000      1
chc163_l23_k           log   factor       10.0000     1.000000E-4    1.000000E+5  Lay_2_3_K       1.0000        0.0000      1
chc164_l23_k           log   factor       10.0000     1.000000E-4    1.000000E+5  Lay_2_3_K       1.0000        0.0000      1
chc165_l23_k           log   factor       10.0000     1.000000E-4    1.000000E+5  Lay_2_3_K       1.0000        0.0000      1
chc166_l23_k           log   factor       10.0000     1.000000E-4    1.000000E+5  Lay_2_3_K       1.0000        0.0000      1
chc167_l23_k           log   factor       10.0000     1.000000E-4    1.000000E+5  Lay_2_3_K       1.0000        0.0000      1
chc168_l23_k           log   factor       10.0000     1.000000E-4    1.000000E+5  Lay_2_3_K       1.0000        0.0000      1
chc169_l23_k           log   factor       10.0000     1.000000E-4    1.000000E+5  Lay_2_3_K       1.0000        0.0000      1
chc170_l23_k           log   factor       10.0000     1.000000E-4    1.000000E+5  Lay_2_3_K       1.0000        0.0000      1
chc171_l23_k           log   factor       10.0000     1.000000E-4    1.000000E+5  Lay_2_3_K       1.0000        0.0000      1
chc172_l23_k           log   factor       10.0000     1.000000E-4    1.000000E+5  Lay_2_3_K       1.0000        0.0000      1
chc173_l23_k           log   factor       10.0000     1.000000E-4    1.000000E+5  Lay_2_3_K       1.0000        0.0000      1
chc174_l23_k           log   factor       10.0000     1.000000E-4    1.000000E+5  Lay_2_3_K       1.0000        0.0000      1
chc175_l23_k           log   factor       10.0000     1.000000E-4    1.000000E+5  Lay_2_3_K       1.0000        0.0000      1
chc176_l23_k           log   factor       10.0000     1.000000E-4    1.000000E+5  Lay_2_3_K       1.0000        0.0000      1
chc177_l23_k           log   factor       10.0000     1.000000E-4    1.000000E+5  Lay_2_3_K       1.0000        0.0000      1
chc178_l23_k           log   factor       10.0000     1.000000E-4    1.000000E+5  Lay_2_3_K       1.0000        0.0000      1
chc179_l23_k           log   factor       10.0000     1.000000E-4    1.000000E+5  Lay_2_3_K       1.0000        0.0000      1
chc180_l23_k           log   factor       10.0000     1.000000E-4    1.000000E+5  Lay_2_3_K       1.0000        0.0000      1