pcf
* control data
restart estimation
9 1837 5 0 2
1  1  double  point  1  0  0
1.000000e+001  2.000000e+000  3.000000e-001  1.000000e-002  10
1.000000e+001  1.000000e+001  1.000000e-003
1.000000e-001 noaui
0  1.000000e-002  3  3  1.000000e-002  3 **** CONTROLS OPTIMIZATION: SEE PEST MANUAL ****
1  1  1
* parameter groups
Kh     relative   1.000000e-002  0.000000e+000  switch  2.000000e+000  parabolic
Base   relative   1.000000e-002  0.000000e+000  switch  2.000000e+000  parabolic
Khi    relative   1.000000e-002  0.000000e+000  switch  2.000000e+000  parabolic
Rch    relative   1.000000e-002  0.000000e+000  switch  2.000000e+000  parabolic
Res    relative   1.000000e-002  0.000000e+000  switch  2.000000e+000  parabolic
* parameter data
K___________	log   factor   3	 .3	 30	Kh     1.0      0.0 1
Base________   fixed  factor   750	 75	 7500	Base   1.0      0.0 1
Kcollapse___	log   factor   1	 .1	 10	Khi    1.0      0.0 1
Klincoln____	log   factor   10	 1	 100	Khi    1.0      0.0 1
Rcollapse___	none  factor   .0004	 .00004	 .004	Rch    -1.0     0.0 1
Recharge____	none  factor   .001	 .0001	 .01	Rch    -1.0     0.0 1
Rlincoln____	none  factor   0	 0	 0	Rch    -1.0     0.0 1
Cdrainage___	none  factor   10	 1	 100	Res    1.0      0.0 1
Cstream_____	none  factor   1	 .1	 10	Res    1.0      0.0 1
* observation groups
Head
Streamflow
* observation data
OW320_poor,0.18 1465.98	1.000000 Head
OW338_poor,0.18 1458.32	1.000000 Head
OW301_poor,0.18 1408.44	1.000000 Head
OW303_poor,0.18 1238.19	1.000000 Head
QJ777_poor,0.18 1501.17	1.000000 Head
QJ786_poor,0.18 1380.87	1.000000 Head
QK015_poor,0.18 1444.25	1.000000 Head
QJ804_poor,0.18 1485.24	1.000000 Head
QJ808_poor,0.18 1208.9	1.000000 Head
QJ810_poor,0.18 1397.54	1.000000 Head
QJ812_poor,0.18 1466.53	1.000000 Head
OU656_poor,0.18 1146.68	1.000000 Head
QM102_poor,0.18 1246.84	1.000000 Head
QJ796_poor,0.18 1459.54	1.000000 Head
QL635_poor,0.18 1532.1	1.000000 Head
QM164_poor,0.18 1432.65	1.000000 Head
QM165_poor,0.18 1459.38	1.000000 Head
QM169_poor,0.18 1578.45	1.000000 Head
QM193_poor,0.18 1482.72	1.000000 Head
NL954_poor,0.18 1180.34	1.000000 Head
QM188_poor,0.18 1337.28	1.000000 Head
QM176_poor,0.18 1220.94	1.000000 Head
QM009_poor,0.18 1435.22	1.000000 Head
QM045_poor,0.18 1454.96	1.000000 Head
QM050_poor,0.18 1216.89	1.000000 Head
QM083_poor,0.18 1468.58	1.000000 Head
QM079_poor,0.18 1256.26	1.000000 Head
QZ412_poor,0.18 1484.59	1.000000 Head
QZ440_poor,0.18 1149.5	1.000000 Head
TA0006_longtrm,0.718 1440.13	1.000000 Head
TA0009_longtrm,0.718 1559.31	1.000000 Head
TA0001_longtrm,0.718 1190.72	1.000000 Head
TA0217_5_msmts,0.718 1342.52	1.000000 Head
RU0060_QW_Weightas~1 1071	1.000000 Head
KathrynLake,0.384 1457	1.000000 Head
NonaLake,0.384 1440	1.000000 Head
Polacklake,0.384 1442	1.000000 Head
SpruceLake,0.384 1340	1.000000 Head
RichterLk,0.384 1359	1.000000 Head
Birchlake,0.384 1386	1.000000 Head
Hortonlake,0.384 1416	1.000000 Head
HullsLake,0.384 1446	1.000000 Head
Kleutch,0.384 1447	1.000000 Head
Keyeslake,0.384 1444	1.000000 Head
Scooflake,0.384 1447	1.000000 Head
Lake19,0.384 1464	1.000000 Head
Lake30,0.384 1456	1.000000 Head
SalemLake,0.384 1421	1.000000 Head
Pickerellake,0.384 1442	1.000000 Head
SackettLake,0.384 1469	1.000000 Head
Washingtonflowage,~1 1443	1.000000 Head
Esadorelake,0.384 1436	1.000000 Head
Schoolhouselake,0.~1 1436	1.000000 Head
LeutheyLake,0.384 1449	1.000000 Head
LostLake,0.384 1330	1.000000 Head
SouthTwinLake,0.384 1445	1.000000 Head
NorthTwinLake,0.384 1445	1.000000 Head
Clarklake,0.384 1490	1.000000 Head
HorseshoeLake,0.384 1489	1.000000 Head
McNamarLake,0.384 1491	1.000000 Head
Mudlake,0.384 1550	1.000000 Head
Stonelake,0.384 1617	1.000000 Head
JamesLake,0.384 1709	1.000000 Head
Sharperlake,0.384 1699	1.000000 Head
Harperlake,0.384 1695	1.000000 Head
Woodlake,0.384 1612	1.000000 Head
Wellingtonlake,0.384 1584	1.000000 Head
Blacklake,0.384 1629	1.000000 Head
Skinnerlake,0.384 1640	1.000000 Head
Chelsealake,0.384 1530	1.000000 Head
Bullheadlake,0.384 1537	1.000000 Head
Shearer,0.384 1575	1.000000 Head
Gibbslake,0.384 1532	1.000000 Head
LittleChelsealake,~1 1530	1.000000 Head
Croninlake,0.384 1453	1.000000 Head
Basslake,0.384 1735	1.000000 Head
Worcesterlake,0.384 1549	1.000000 Head
Mudlake2,0.384 1300	1.000000 Head
Bigbrienslke,0.384 1631	1.000000 Head
Ltlbrienlke,0.384 1625	1.000000 Head
McGeelake,0.384 1279	1.000000 Head
Lakelaverne,0.384 1300	1.000000 Head
Shamrocklake,0.384 1356	1.000000 Head
Pikelake,0.384 1097	1.000000 Head
Withrowlake,0.384 1198	1.000000 Head
Chapmanlake,0.384 1081	1.000000 Head
Junelake,0.384 1407	1.000000 Head
US687_poor,0.18 1428.29	1.000000 Head
UA490_poor,0.18 1376.93	1.000000 Head
FG257_poor,0.18 1441.62	1.000000 Head
VB160_verygood,0.38 1445.34	1.000000 Head
UO129_fair,0.28 1460.36	1.000000 Head
VJ021_fair,0.28 1364.64	1.000000 Head
VE234_fair,0.28 1394.13	1.000000 Head
EQ503_fair,0.28 1436.32	1.000000 Head
UY741_fair,0.28 1428.13	1.000000 Head
VJ013_poor,0.18 1583.6	1.000000 Head
UX215_fair,0.28 1229.48	1.000000 Head
UO173_fair,0.28 1433.29	1.000000 Head
UK421_poor,0.18 1373.66	1.000000 Head
UY732_poor,0.18 1263.16	1.000000 Head
TI808_poor,0.18 1280.55	1.000000 Head
UN475_poor,0.18 1277.89	1.000000 Head
WS610_poor,0.18 1228.91	1.000000 Head
TL251_poor,0.18 1509.7	1.000000 Head
TO657_poor,0.18 1527.01	1.000000 Head
GU420_poor,0.18 1274.83	1.000000 Head
UT571_poor,0.18 1307.94	1.000000 Head
VE238_poor,0.18 1564.47	1.000000 Head
UT595_poor,0.18 1448.84	1.000000 Head
IY613_poor,0.18 1509.22	1.000000 Head
UW286_poor,0.18 1417.96	1.000000 Head
VB191_poor,0.18 1322.08	1.000000 Head
UD999_poor,0.18 1234.95	1.000000 Head
UO158_poor,0.18 1463.51	1.000000 Head
UA440_poor,0.18 1431.44	1.000000 Head
UW293_poor,0.18 1415.46	1.000000 Head
UD990_poor,0.18 1441.41	1.000000 Head
UD913_poor,0.18 1425.96	1.000000 Head
UK420_poor,0.18 1425.58	1.000000 Head
WT108_poor,0.18 1268.2	1.000000 Head
UW858_poor,0.18 1429.15	1.000000 Head
WT123_poor,0.18 1408.09	1.000000 Head
TO631_poor,0.18 1239.76	1.000000 Head
VB148_poor,0.18 1467.19	1.000000 Head
UD959_poor,0.18 1438.94	1.000000 Head
UR118_poor,0.18 1367.27	1.000000 Head
TO666_poor,0.18 1428.41	1.000000 Head
UR098_poor,0.18 1147.8	1.000000 Head
EP751_poor,0.18 1276.18	1.000000 Head
AN552_poor,0.18 1438.02	1.000000 Head
AA578_poor,0.18 1451.51	1.000000 Head
AD387_poor,0.18 1446.07	1.000000 Head
CW880_poor,0.18 1439.44	1.000000 Head
DF677_poor,0.18 1426.79	1.000000 Head
EK121_poor,0.18 1475.22	1.000000 Head
IK462_poor,0.18 1582.21	1.000000 Head
FN480_poor,0.18 1186.23	1.000000 Head
FN481_poor,0.18 1133.27	1.000000 Head
FN483_poor,0.18 1220.76	1.000000 Head
FN488_poor,0.18 1447.46	1.000000 Head
GI902_poor,0.18 1184.55	1.000000 Head
GL750_poor,0.18 1223.36	1.000000 Head
GL770_fair,0.28 1260.17	1.000000 Head
HM514_poor,0.18 1171.3	1.000000 Head
KN333_poor,0.18 1443.34	1.000000 Head
KN641_poor,0.18 1422.64	1.000000 Head
KN654_poor,0.18 1474.7	1.000000 Head
KN975_poor,0.18 1431.72	1.000000 Head
KN978_poor,0.18 1482.15	1.000000 Head
LA678_poor,0.18 1191.58	1.000000 Head
OB501_poor,0.18 1432.62	1.000000 Head
NJ194_poor,0.18 1489.86	1.000000 Head
OB513_poor,0.18 1297.34	1.000000 Head
NX847_poor,0.18 1373.15	1.000000 Head
NX867_poor,0.18 1617.86	1.000000 Head
NJ296_poor,0.18 1465.75	1.000000 Head
NJ127_poor,0.18 1450.58	1.000000 Head
OH009_poor,0.18 1396.49	1.000000 Head
OH018_poor,0.18 1444.53	1.000000 Head
OB687_poor,0.18 1280.62	1.000000 Head
OH030_poor,0.18 1448.44	1.000000 Head
QZ374_poor,0.18 1274.75	1.000000 Head
MT256_poor,0.18 1494.88	1.000000 Head
NC501_poor,0.18 1281.93	1.000000 Head
NJ048_poor,0.18 1358.12	1.000000 Head
RD349_poor,0.18 1261.24	1.000000 Head
RR774_poor,0.18 1422	1.000000 Head
RR626_poor,0.18 1348.68	1.000000 Head
RD387_poor,0.18 1572.61	1.000000 Head
QZ459_poor,0.18 1389.92	1.000000 Head
QZ474_poor,0.18 1272.58	1.000000 Head
QZ489_poor,0.18 1226.58	1.000000 Head
RK229_poor,0.18 1382.6	1.000000 Head
RK280_poor,0.18 1707.86	1.000000 Head
RM171_poor,0.18 1450.53	1.000000 Head
RR712_poor,0.18 1453.3	1.000000 Head
RR729_poor,0.18 1199.9	1.000000 Head
RR733_poor,0.18 1469.42	1.000000 Head
RR722_poor,0.18 1449.24	1.000000 Head
RR742_poor,0.18 1341.96	1.000000 Head
RR042_poor,0.18 1560.31	1.000000 Head
RR612_poor,0.18 1422.96	1.000000 Head
RR661_poor,0.18 1182.34	1.000000 Head
SM855_poor,0.18 1637.69	1.000000 Head
SM897_poor,0.18 1503.88	1.000000 Head
SM900_poor,0.18 1447.3	1.000000 Head
SQ215_poor,0.18 1174.72	1.000000 Head
SH640_poor,0.18 1453.01	1.000000 Head
SQ268_poor,0.18 1380.91	1.000000 Head
SQ284_poor,0.18 1227.35	1.000000 Head
SQ298_poor,0.18 1345.31	1.000000 Head
ST825_poor,0.18 1600.94	1.000000 Head
SX419_poor,0.18 1454.83	1.000000 Head
TA614_poor,0.18 1150.43	1.000000 Head
SX511_poor,0.18 1435.07	1.000000 Head
SU746_poor,0.18 1460.95	1.000000 Head
SX532_poor,0.18 1290.28	1.000000 Head
SX561_poor,0.18 1434.71	1.000000 Head
TG784_poor,0.18 1336	1.000000 Head
TG792_poor,0.18 1414.77	1.000000 Head
VG229_poor,0.18 1402.75	1.000000 Head
WS665_poor,0.18 1401.12	1.000000 Head
QZ331_poor,0.18 1336.52	1.000000 Head
QZ403_poor,0.18 1436.1	1.000000 Head
LC754_poor,0.18 1264.37	1.000000 Head
LC813_poor,0.18 1518.76	1.000000 Head
LC824_poor,0.18 1327.28	1.000000 Head
LF372_poor,0.18 1635.96	1.000000 Head
ME645_poor,0.18 1330.01	1.000000 Head
MK047_poor,0.18 1279.48	1.000000 Head
MK841_poor,0.18 1349.01	1.000000 Head
ML014_poor,0.18 1276.23	1.000000 Head
ML031_poor,0.18 1479.14	1.000000 Head
ML054_poor,0.18 1461.5	1.000000 Head
ML104_poor,0.18 1108.17	1.000000 Head
ML119_poor,0.18 1405.86	1.000000 Head
ML142_poor,0.18 1326.96	1.000000 Head
NJ101_poor,0.18 1447.11	1.000000 Head
NJ245_poor,0.18 1463.54	1.000000 Head
NJ247_poor,0.18 1459.36	1.000000 Head
NJ146_poor,0.18 1380.64	1.000000 Head
NJ177_poor,0.18 1455.95	1.000000 Head
OG003_poor,0.18 1492.85	1.000000 Head
OG018_poor,0.18 1448.27	1.000000 Head
OG004_poor,0.18 1458.42	1.000000 Head
OQ200_poor,0.18 1404.02	1.000000 Head
OG089_poor,0.18 1460.48	1.000000 Head
OG092_poor,0.18 1479.24	1.000000 Head
OW291_poor,0.18 1414.23	1.000000 Head
OW318_poor,0.18 1380.78	1.000000 Head
QZ448_poor,0.18 1401.4	1.000000 Head
QZ441_poor,0.18 1215.86	1.000000 Head
QZ461_poor,0.18 1289.04	1.000000 Head
QZ446_poor,0.18 1430.79	1.000000 Head
SH852_poor,0.18 1212.25	1.000000 Head
SH822_poor,0.18 1435.69	1.000000 Head
SH835_poor,0.18 1319.72	1.000000 Head
SH074_poor,0.18 1435.86	1.000000 Head
SH898_poor,0.18 1444.11	1.000000 Head
SH922_poor,0.18 1344.71	1.000000 Head
SX581_poor,0.18 1451.66	1.000000 Head
TG762_poor,0.18 1525.95	1.000000 Head
SX599_poor,0.18 1536.42	1.000000 Head
TG753_poor,0.18 1544.67	1.000000 Head
SH866_poor,0.18 1435.71	1.000000 Head
SH935_poor,0.18 1352.17	1.000000 Head
SH934_poor,0.18 1278.63	1.000000 Head
SH959_poor,0.18 1413.81	1.000000 Head
SH963_poor,0.18 1456.26	1.000000 Head
TI842_poor,0.18 1394.88	1.000000 Head
TI843_poor,0.18 1217.77	1.000000 Head
TI848_poor,0.18 1390.45	1.000000 Head
TL034_poor,0.18 1182.63	1.000000 Head
TY553_poor,0.18 1445.07	1.000000 Head
TL282_poor,0.18 1425.6	1.000000 Head
TZ178_poor,0.18 1678.91	1.000000 Head
UA461_poor,0.18 1330.94	1.000000 Head
TZ192_poor,0.18 1433.32	1.000000 Head
UD003_poor,0.18 1172.06	1.000000 Head
UD907_poor,0.18 1154.26	1.000000 Head
UF333_poor,0.18 1471.54	1.000000 Head
UL488_poor,0.18 1164.53	1.000000 Head
UQ327_poor,0.18 1337.51	1.000000 Head
UQ335_poor,0.18 1119.85	1.000000 Head
UT574_poor,0.18 1380.89	1.000000 Head
UM617_poor,0.18 1259.38	1.000000 Head
UU645_poor,0.18 1514.41	1.000000 Head
UY968_poor,0.18 1232.03	1.000000 Head
VG204_poor,0.18 1622.99	1.000000 Head
GC772_poor,0.18 1432.33	1.000000 Head
FJ616_poor,0.18 1430.09	1.000000 Head
DE747_poor,0.18 1341.83	1.000000 Head
GD804_poor,0.18 1259.79	1.000000 Head
FJ572_poor,0.18 1273.1	1.000000 Head
NO695_poor,0.18 1607.04	1.000000 Head
KN982_poor,0.18 1422.25	1.000000 Head
QJ785_poor,0.18 1455.42	1.000000 Head
FU673_poor,0.18 1443.08	1.000000 Head
LC036_poor,0.18 1367.2	1.000000 Head
OF842_poor,0.18 1190.37	1.000000 Head
IC895_poor,0.18 1443.05	1.000000 Head
NJ088_poor,0.18 1425.58	1.000000 Head
LA950_poor,0.18 1490.31	1.000000 Head
SQ225_poor,0.18 1253.94	1.000000 Head
RD346_poor,0.18 1617.58	1.000000 Head
GD747_poor,0.18 1434.79	1.000000 Head
RR778_poor,0.18 1661.35	1.000000 Head
SX458_verygood,0.38 1384.63	1.000000 Head
WR941_poor,0.18 1460.18	1.000000 Head
ML120_poor,0.18 1350.92	1.000000 Head
MY771_poor,0.18 1195.23	1.000000 Head
AS675_poor,0.18 1332.41	1.000000 Head
DE773_poor,0.18 1441.36	1.000000 Head
QL642_poor,0.18 1240.61	1.000000 Head
DB007_poor,0.18 1355.71	1.000000 Head
RR715_poor,0.18 1182.99	1.000000 Head
CZ073_verygood,0.38 1239.47	1.000000 Head
TAY131_poor,0.18 1378.22	1.000000 Head
TAY151_poor,0.18 1526.75	1.000000 Head
TAY153_poor,0.18 1435.87	1.000000 Head
TAY158_fair,0.28 1224.21	1.000000 Head
TAY160_fair,0.28 1384.73	1.000000 Head
TAY166_fair,0.28 1250.29	1.000000 Head
TAY180_fair,0.28 1234.36	1.000000 Head
TAY188_fair,0.28 1270.43	1.000000 Head
TAY194_fair,0.28 1266.95	1.000000 Head
TAY202_poor,0.18 1445.47	1.000000 Head
TAY207_fair,0.28 1346.28	1.000000 Head
TAY225_poor,0.18 1430.99	1.000000 Head
TAY242_fair,0.28 1284.32	1.000000 Head
TAY286_fair,0.28 1513.35	1.000000 Head
TAY290_fair,0.28 1302.81	1.000000 Head
TAY296_fair,0.28 1284.32	1.000000 Head
TAY298_fair,0.28 1159.88	1.000000 Head
TAY313_fair,0.28 1258.04	1.000000 Head
TAY321_fair,0.28 1402.4	1.000000 Head
TAY329_poor,0.18 1471.88	1.000000 Head
TAY354_poor,0.18 1528.55	1.000000 Head
TAY358_fair,0.28 1468.03	1.000000 Head
TAY359_poor,0.18 1281.39	1.000000 Head
TAY362_fair,0.28 1223.86	1.000000 Head
TAY366_poor,0.18 1438.87	1.000000 Head
TAY392_fair,0.28 1393.02	1.000000 Head
TAY394_fair,0.28 1333.72	1.000000 Head
TAY407_poor,0.18 1462.54	1.000000 Head
TAY410_fair,0.28 1241.11	1.000000 Head
TAY422_fair,0.28 1237.17	1.000000 Head
TAY423_fair,0.28 1265.24	1.000000 Head
TAY428_fair,0.28 1218.2	1.000000 Head
TAY430_fair,0.28 1341.54	1.000000 Head
TAY449_fair,0.28 1228.64	1.000000 Head
TAY478_poor,0.18 1487.51	1.000000 Head
TAY511_poor,0.18 1554.72	1.000000 Head
TAY513_poor,0.18 1338.73	1.000000 Head
TAY542_poor,0.18 1431.05	1.000000 Head
TAY560_fair,0.28 1232.09	1.000000 Head
TAY568_poor,0.18 1441.4	1.000000 Head
TAY578_fair,0.28 1227.21	1.000000 Head
TAY583_fair,0.28 1268.29	1.000000 Head
TAY594_poor,0.18 1253.01	1.000000 Head
TAY604_poor,0.18 1358.9	1.000000 Head
TAY609_fair,0.28 1225.89	1.000000 Head
TAY617_poor,0.18 1428.67	1.000000 Head
TAY627_poor,0.18 1181.29	1.000000 Head
TAY630_poor,0.18 1444.56	1.000000 Head
TAY636_poor,0.18 1605.38	1.000000 Head
TAY639_fair,0.28 1405.77	1.000000 Head
TAY645_poor,0.18 1451.61	1.000000 Head
TAY653_fair,0.28 1386.18	1.000000 Head
TAY666_fair,0.28 1232.01	1.000000 Head
TAY679_poor,0.18 1466.04	1.000000 Head
TAY705_fair,0.28 1386.21	1.000000 Head
TAY707_fair,0.28 1435.5	1.000000 Head
TAY710_fair,0.28 1253.28	1.000000 Head
TAY748_good,0.34 1367.3	1.000000 Head
TAY759_fair,0.28 1461.57	1.000000 Head
TAY760_fair,0.28 1348.36	1.000000 Head
TAY768_fair,0.28 1438.24	1.000000 Head
TAY770_poor,0.18 1241.25	1.000000 Head
TAY781_poor,0.18 1440.37	1.000000 Head
TAY796_fair,0.28 1412.42	1.000000 Head
TAY801_fair,0.28 1423.45	1.000000 Head
TAY805_poor,0.18 1629.31	1.000000 Head
TAY807_poor,0.18 1492.76	1.000000 Head
TAY829_fair,0.28 1553.79	1.000000 Head
TAY839_fair,0.28 1344.43	1.000000 Head
TAY848_fair,0.28 1329.54	1.000000 Head
TAY849_poor,0.18 1437.05	1.000000 Head
TAY860_fair,0.28 1428.38	1.000000 Head
TAY881_fair,0.28 1282.31	1.000000 Head
TAY882_poor,0.18 1294.35	1.000000 Head
TAY887_poor,0.18 1325.98	1.000000 Head
TAY918_fair,0.28 1441.13	1.000000 Head
TAY921_fair,0.28 1478.15	1.000000 Head
TAY922_poor,0.18 1596.45	1.000000 Head
TAY931_poor,0.18 1331.05	1.000000 Head
TAY935_fair,0.28 1232.89	1.000000 Head
TAY939_fair,0.28 1457.43	1.000000 Head
TAY947_fair,0.28 1257.25	1.000000 Head
TAY970_fair,0.28 1268.01	1.000000 Head
TAY974_poor,0.18 1454.03	1.000000 Head
TAY982_fair,0.28 1251.59	1.000000 Head
TAY1002_poor,0.18 1419.62	1.000000 Head
TAY1007_poor,0.18 1459.64	1.000000 Head
TAY1017_poor,0.18 1487.65	1.000000 Head
TAY1020_poor,0.18 1493.93	1.000000 Head
TAY1028_poor,0.18 1447.86	1.000000 Head
TAY1033_poor,0.18 1513.5	1.000000 Head
TAY1040_fair,0.28 1244.62	1.000000 Head
TAY1085_fair,0.28 1468.23	1.000000 Head
TAY1093_poor,0.18 1209.7	1.000000 Head
TAY1095_fair,0.28 1235.58	1.000000 Head
TAY1100_poor,0.18 1563.52	1.000000 Head
TAY1108_poor,0.18 1535.9	1.000000 Head
TAY1124_poor,0.18 1585.58	1.000000 Head
TAY1126_poor,0.18 1451.97	1.000000 Head
TAY1141_fair,0.28 1504.85	1.000000 Head
TAY1144_fair,0.28 1184.02	1.000000 Head
TAY1152_fair,0.28 1285.95	1.000000 Head
TAY1155_poor,0.18 1262.77	1.000000 Head
TAY1163_poor,0.18 1275.18	1.000000 Head
TAY1164_poor,0.18 1451.23	1.000000 Head
TAY1173_fair,0.28 1427.72	1.000000 Head
TAY1183_poor,0.18 1431.73	1.000000 Head
TAY1196_fair,0.28 1389.97	1.000000 Head
TAY1202_poor,0.18 1522.96	1.000000 Head
TAY1231_fair,0.28 1500.18	1.000000 Head
TAY1236_fair,0.28 1378.45	1.000000 Head
TAY1249_fair,0.28 1462.75	1.000000 Head
TAY1257_poor,0.18 1254.44	1.000000 Head
TAY1285_fair,0.28 1333.49	1.000000 Head
TAY1300_poor,0.18 1234.18	1.000000 Head
TAY1305_fair,0.28 1507.62	1.000000 Head
TAY1322_fair,0.28 1347.88	1.000000 Head
TAY1326_fair,0.28 1234.97	1.000000 Head
TAY1328_fair,0.28 1374.85	1.000000 Head
TAY1348_poor,0.18 1276.19	1.000000 Head
TAY1361_poor,0.18 1333.65	1.000000 Head
TAY1366_poor,0.18 1564.25	1.000000 Head
TAY1367_fair,0.28 1371.28	1.000000 Head
TAY1368_fair,0.28 1373.63	1.000000 Head
TAY1393_fair,0.28 1386.55	1.000000 Head
TAY1399_fair,0.28 1248.88	1.000000 Head
TAY1408_fair,0.28 1215.22	1.000000 Head
TAY1415_poor,0.18 1466.97	1.000000 Head
TAY1463_fair,0.28 1299.84	1.000000 Head
TAY1465_poor,0.18 1251.36	1.000000 Head
TAY1474_fair,0.28 1227.07	1.000000 Head
TAY1487_fair,0.28 1572.25	1.000000 Head
TAY1495_poor,0.18 1224.05	1.000000 Head
TAY1516_fair,0.28 1603.23	1.000000 Head
TAY1528_poor,0.18 1382.56	1.000000 Head
TAY1530_poor,0.18 1259.34	1.000000 Head
TAY1538_poor,0.18 1530.06	1.000000 Head
TAY1548_fair,0.28 1373.51	1.000000 Head
TAY1568_fair,0.28 1191.1	1.000000 Head
TAY1581_fair,0.28 1207.04	1.000000 Head
TAY1586_fair,0.28 1161.61	1.000000 Head
TAY1591_fair,0.28 1278.92	1.000000 Head
TAY1610_poor,0.18 1370.65	1.000000 Head
TAY1627_fair,0.28 1169.12	1.000000 Head
TAY1646_poor,0.18 1226.77	1.000000 Head
TAY1659_poor,0.18 1244.3	1.000000 Head
TAY1690_poor,0.18 1554.82	1.000000 Head
TAY1694_poor,0.18 1329.67	1.000000 Head
TAY1698_fair,0.28 1436.97	1.000000 Head
TAY1708_fair,0.28 1281.04	1.000000 Head
TAY1711_poor,0.18 1256.39	1.000000 Head
TAY1715_poor,0.18 1255.14	1.000000 Head
TAY1727_poor,0.18 1400.44	1.000000 Head
TAY1730_poor,0.18 1432.43	1.000000 Head
TAY1731_poor,0.18 1529.15	1.000000 Head
TAY1733_fair,0.28 1166.33	1.000000 Head
TAY1743_poor,0.18 1649.61	1.000000 Head
TAY1744_fair,0.28 1245.94	1.000000 Head
TAY1761_fair,0.28 1332.39	1.000000 Head
TAY1773_poor,0.18 1497.42	1.000000 Head
TAY1779_poor,0.18 1386.75	1.000000 Head
TAY1783_poor,0.18 1183.52	1.000000 Head
TAY1791_poor,0.18 1308.18	1.000000 Head
TAY1795_poor,0.18 1402.25	1.000000 Head
TAY1808_fair,0.28 1395.34	1.000000 Head
TAY1813_poor,0.18 1478.2	1.000000 Head
TAY1834_poor,0.18 1223.23	1.000000 Head
TAY1856_poor,0.18 1328.56	1.000000 Head
TAY1861_poor,0.18 1480.19	1.000000 Head
TAY1882_fair,0.28 1273.04	1.000000 Head
TAY1891_fair,0.28 1163.56	1.000000 Head
TAY1892_fair,0.28 1275.37	1.000000 Head
TAY1908_poor,0.18 1387.26	1.000000 Head
TAY1915_poor,0.18 1432.72	1.000000 Head
TAY1924_poor,0.18 1259.04	1.000000 Head
TAY1939_poor,0.18 1481.52	1.000000 Head
TAY1947_fair,0.28 1418.45	1.000000 Head
TAY1949_fair,0.28 1314.23	1.000000 Head
TAY1952_poor,0.18 1545.29	1.000000 Head
TAY1960_fair,0.28 1409.46	1.000000 Head
TAY1962_fair,0.28 1406.55	1.000000 Head
TAY1974_poor,0.18 1647.21	1.000000 Head
TAY1995_fair,0.28 1341.39	1.000000 Head
TAY2016_poor,0.18 1257.57	1.000000 Head
TAY2031_poor,0.18 1513.14	1.000000 Head
TAY2036_fair,0.28 1232.12	1.000000 Head
TAY2041_fair,0.28 1226.33	1.000000 Head
TAY2047_poor,0.18 1344.06	1.000000 Head
TAY2061_fair,0.28 1379.28	1.000000 Head
TAY2062_fair,0.28 1433.79	1.000000 Head
TAY2073_fair,0.28 1248.85	1.000000 Head
TAY2100_poor,0.18 1543.21	1.000000 Head
TAY2103_poor,0.18 1240.13	1.000000 Head
TAY2113_fair,0.28 1436.96	1.000000 Head
TAY2119_poor,0.18 1256.02	1.000000 Head
TAY2123_fair,0.28 1240.39	1.000000 Head
TAY2131_good,0.34 1247.5	1.000000 Head
TAY2135_poor,0.18 1463.11	1.000000 Head
TAY2145_poor,0.18 1428.97	1.000000 Head
TAY2161_fair,0.28 1240.85	1.000000 Head
TAY2174_fair,0.28 1512.01	1.000000 Head
TAY2177_poor,0.18 1319.98	1.000000 Head
TAY2178_poor,0.18 1582.39	1.000000 Head
TAY2186_fair,0.28 1460.24	1.000000 Head
TAY2204_poor,0.18 1524.22	1.000000 Head
TAY2240_fair,0.28 1179.51	1.000000 Head
TAY2248_poor,0.18 1303.71	1.000000 Head
TAY2284_fair,0.28 1467.46	1.000000 Head
TAY2294_poor,0.18 1393.58	1.000000 Head
TAY2316_fair,0.28 1218.68	1.000000 Head
TAY2319_poor,0.18 1315.57	1.000000 Head
TAY2361_fair,0.28 1219.37	1.000000 Head
TAY2375_poor,0.18 1435.25	1.000000 Head
TAY2377_poor,0.18 1251.73	1.000000 Head
TAY2410_good,0.34 1358.38	1.000000 Head
TAY2417_poor,0.18 1386.87	1.000000 Head
TAY2420_fair,0.28 1385.45	1.000000 Head
TAY2462_fair,0.28 1428.68	1.000000 Head
TAY2472_poor,0.18 1466.79	1.000000 Head
TAY2500_fair,0.28 1249.46	1.000000 Head
TAY2519_poor,0.18 1165.4	1.000000 Head
TAY2520_poor,0.18 1426.85	1.000000 Head
TAY2527_fair,0.28 1449.53	1.000000 Head
TAY2528_fair,0.28 1468.29	1.000000 Head
TAY2537_fair,0.28 1208.81	1.000000 Head
TAY2540_fair,0.28 1374.86	1.000000 Head
TAY2560_poor,0.18 1283.37	1.000000 Head
TAY2564_poor,0.18 1495.17	1.000000 Head
TAY2567_poor,0.18 1470.56	1.000000 Head
TAY2588_fair,0.28 1419.21	1.000000 Head
TAY2592_fair,0.28 1315.87	1.000000 Head
TAY2609_poor,0.18 1274.68	1.000000 Head
TAY2630_fair,0.28 1206.38	1.000000 Head
TAY2633_poor,0.18 1272.74	1.000000 Head
TAY2637_fair,0.28 1414.81	1.000000 Head
TAY2639_fair,0.28 1333.64	1.000000 Head
TAY2644_fair,0.28 1242.94	1.000000 Head
TAY2654_fair,0.28 1160.76	1.000000 Head
TAY2676_fair,0.28 1249.09	1.000000 Head
TAY2702_poor,0.18 1331.89	1.000000 Head
TAY2705_fair,0.28 1344.17	1.000000 Head
TAY2748_poor,0.18 1507.28	1.000000 Head
TAY2749_fair,0.28 1250.53	1.000000 Head
TAY2756_poor,0.18 1454.43	1.000000 Head
TAY2762_poor,0.18 1438.65	1.000000 Head
TAY2764_fair,0.28 1419.57	1.000000 Head
TAY2771_fair,0.28 1432.22	1.000000 Head
TAY2787_fair,0.28 1276.36	1.000000 Head
TAY2792_fair,0.28 1285.07	1.000000 Head
TAY2803_fair,0.28 1481.6	1.000000 Head
TAY2812_fair,0.28 1291.96	1.000000 Head
TAY2828_poor,0.18 1492.62	1.000000 Head
TAY2829_fair,0.28 1448.12	1.000000 Head
TAY2848_fair,0.28 1259.76	1.000000 Head
TAY2851_poor,0.18 1427.15	1.000000 Head
TAY2855_poor,0.18 1341.49	1.000000 Head
TAY2863_fair,0.28 1425.86	1.000000 Head
TAY2869_fair,0.28 1228.4	1.000000 Head
TAY2875_poor,0.18 1261.91	1.000000 Head
TAY2880_fair,0.28 1395.49	1.000000 Head
TAY2881_fair,0.28 1168.34	1.000000 Head
TAY2886_good,0.34 1387.55	1.000000 Head
TAY2896_fair,0.28 1491.08	1.000000 Head
TAY2916_fair,0.28 1180.94	1.000000 Head
TAY2941_fair,0.28 1399.18	1.000000 Head
OM315_poor,0.18 1090.59	1.000000 Head
GC782_poor,0.18 1089.85	1.000000 Head
NV687_poor,0.18 1149.21	1.000000 Head
NV696_poor,0.18 1140.1	1.000000 Head
OH008_poor,0.18 1164.33	1.000000 Head
OB680_poor,0.18 1164.32	1.000000 Head
OU649_poor,0.18 1117.57	1.000000 Head
CQ066_poor,0.18 1142.77	1.000000 Head
AR598_poor,0.18 1080.28	1.000000 Head
BA709_poor,0.18 1091.6	1.000000 Head
AR286_poor,0.18 1098.27	1.000000 Head
GH366_poor,0.18 1109.63	1.000000 Head
FQ760_poor,0.18 1137.26	1.000000 Head
IH225_poor,0.18 1174.01	1.000000 Head
IK046_poor,0.18 1115.04	1.000000 Head
GD212_poor,0.18 1108.52	1.000000 Head
DS281_poor,0.18 1165.56	1.000000 Head
AY601_poor,0.18 1141.75	1.000000 Head
CB839_poor,0.18 1107.76	1.000000 Head
DS292_poor,0.18 1120.05	1.000000 Head
DO783_poor,0.18 1139.59	1.000000 Head
EL351_poor,0.18 1149.33	1.000000 Head
EL334_poor,0.18 1153.91	1.000000 Head
DS290_poor,0.18 1170.99	1.000000 Head
CB843_poor,0.18 1125.33	1.000000 Head
DO722_poor,0.18 1195.56	1.000000 Head
EL354_poor,0.18 1166.02	1.000000 Head
FK042_poor,0.18 1130.87	1.000000 Head
EO630_poor,0.18 1084.84	1.000000 Head
EL343_poor,0.18 1147.96	1.000000 Head
FP069_poor,0.18 1133.02	1.000000 Head
FW662_poor,0.18 1153.08	1.000000 Head
FW660_poor,0.18 1147.33	1.000000 Head
FP070_poor,0.18 1169.12	1.000000 Head
GC783_poor,0.18 1122.06	1.000000 Head
IK028_poor,0.18 1107.5	1.000000 Head
IK008_poor,0.18 1095.35	1.000000 Head
KZ704_poor,0.18 1149.42	1.000000 Head
LM906_poor,0.18 1139.46	1.000000 Head
KV934_poor,0.18 1074.28	1.000000 Head
KY215_poor,0.18 1136.04	1.000000 Head
ML998_poor,0.18 1141.9	1.000000 Head
KV912_poor,0.18 1047.58	1.000000 Head
KN529_poor,0.18 1128.96	1.000000 Head
LK549_poor,0.18 1065.39	1.000000 Head
LC022_poor,0.18 1150.82	1.000000 Head
LG334_poor,0.18 1143.62	1.000000 Head
LI775_poor,0.18 1084.36	1.000000 Head
LI278_poor,0.18 1198.96	1.000000 Head
HZ056_poor,0.18 1149.14	1.000000 Head
KV906_poor,0.18 1087.02	1.000000 Head
MQ530_poor,0.18 1104.16	1.000000 Head
MT297_poor,0.18 1154.64	1.000000 Head
MU437_poor,0.18 1129.98	1.000000 Head
MS776_poor,0.18 1124.36	1.000000 Head
MT410_poor,0.18 1062.33	1.000000 Head
MT409_poor,0.18 1119.05	1.000000 Head
MO697_poor,0.18 1165.99	1.000000 Head
NJ115_poor,0.18 1124.05	1.000000 Head
NO625_poor,0.18 1083.02	1.000000 Head
NN027_poor,0.18 1137.86	1.000000 Head
MY281_poor,0.18 1153.58	1.000000 Head
NN006_poor,0.18 1140.15	1.000000 Head
NO682_poor,0.18 1140.09	1.000000 Head
QL621_poor,0.18 1088.54	1.000000 Head
OQ247_poor,0.18 1151.87	1.000000 Head
NX256_poor,0.18 1166.58	1.000000 Head
ON067_poor,0.18 1054.28	1.000000 Head
OQ246_poor,0.18 1168.35	1.000000 Head
QL622_poor,0.18 1083.35	1.000000 Head
QR408_poor,0.18 1158.65	1.000000 Head
QR207_poor,0.18 1110.56	1.000000 Head
QL698_poor,0.18 1116.78	1.000000 Head
QR406_poor,0.18 1053.21	1.000000 Head
QZ515_poor,0.18 1148.06	1.000000 Head
RD325_poor,0.18 1084.06	1.000000 Head
QR425_poor,0.18 1053.95	1.000000 Head
QY642_poor,0.18 1113.52	1.000000 Head
QZ471_poor,0.18 1087.54	1.000000 Head
QR414_poor,0.18 1178	1.000000 Head
QR416_poor,0.18 1152.43	1.000000 Head
QV480_poor,0.18 1179.31	1.000000 Head
RB921_poor,0.18 1049.6	1.000000 Head
QR415_poor,0.18 1142.13	1.000000 Head
RM187_poor,0.18 1106.87	1.000000 Head
RB947_poor,0.18 1102.21	1.000000 Head
RP039_poor,0.18 1127.83	1.000000 Head
RP033_poor,0.18 1161.53	1.000000 Head
RP034_poor,0.18 1062.55	1.000000 Head
RR046_poor,0.18 1145.95	1.000000 Head
SE152_poor,0.18 1126.18	1.000000 Head
SB596_poor,0.18 1134.14	1.000000 Head
RR611_poor,0.18 1120.38	1.000000 Head
RP049_poor,0.18 1085.27	1.000000 Head
SH851_poor,0.18 1152.37	1.000000 Head
SE169_poor,0.18 1110.78	1.000000 Head
SB824_poor,0.18 1108.55	1.000000 Head
SG641_poor,0.18 1168.37	1.000000 Head
SE190_poor,0.18 1089.25	1.000000 Head
SH925_poor,0.18 1143.75	1.000000 Head
SG640_poor,0.18 1167.31	1.000000 Head
ST819_poor,0.18 1101.23	1.000000 Head
SH933_poor,0.18 1146.79	1.000000 Head
SE304_poor,0.18 1125.83	1.000000 Head
SH962_poor,0.18 1128.28	1.000000 Head
ST801_poor,0.18 1145.01	1.000000 Head
SE317_poor,0.18 1116.94	1.000000 Head
UV611_poor,0.18 1145.77	1.000000 Head
UX203_poor,0.18 1176.79	1.000000 Head
SG688_poor,0.18 1222.25	1.000000 Head
SG691_poor,0.18 1135.23	1.000000 Head
SG693_poor,0.18 1108.28	1.000000 Head
UX201_poor,0.18 1129.59	1.000000 Head
UX205_poor,0.18 1150.61	1.000000 Head
UY958_poor,0.18 1099.57	1.000000 Head
UY965_poor,0.18 1075.46	1.000000 Head
UX250_poor,0.18 1144.72	1.000000 Head
VB151_poor,0.18 1140.34	1.000000 Head
UX212_poor,0.18 1150.32	1.000000 Head
VF078_poor,0.18 1128.89	1.000000 Head
UX170_poor,0.18 1146.22	1.000000 Head
WR469_poor,0.18 1106.97	1.000000 Head
VF100_poor,0.18 1087.65	1.000000 Head
UT565_poor,0.18 1165.04	1.000000 Head
UK476_fair,0.28 1147.27	1.000000 Head
UA436_poor,0.18 1141.53	1.000000 Head
UR077_poor,0.18 1146.53	1.000000 Head
UD966_poor,0.18 1198.31	1.000000 Head
UK495_poor,0.18 1150.9	1.000000 Head
UO180_poor,0.18 1131.16	1.000000 Head
UD908_poor,0.18 1133.79	1.000000 Head
UO161_poor,0.18 1146.22	1.000000 Head
OF839_poor,0.18 1143.16	1.000000 Head
RR630_poor,0.18 1157.68	1.000000 Head
TI845_poor,0.18 1147.95	1.000000 Head
OU653_poor,0.18 1081.28	1.000000 Head
SX498_poor,0.18 1152.04	1.000000 Head
SG655_poor,0.18 1083.67	1.000000 Head
QY605_poor,0.18 1102.71	1.000000 Head
SS281_poor,0.18 1123.69	1.000000 Head
ML042_poor,0.18 1179.36	1.000000 Head
UB828_poor,0.18 1150.26	1.000000 Head
HM383_poor,0.18 1157.53	1.000000 Head
SS256_poor,0.18 1081.22	1.000000 Head
SG670_poor,0.18 1173.34	1.000000 Head
RJ985_poor,0.18 1150.02	1.000000 Head
SG674_poor,0.18 1141.82	1.000000 Head
RM128_poor,0.18 1110.74	1.000000 Head
KV948_poor,0.18 1066.41	1.000000 Head
ON068_poor,0.18 1122.04	1.000000 Head
SG658_poor,0.18 1145.01	1.000000 Head
SS299_poor,0.18 1079.43	1.000000 Head
SX519_poor,0.18 1160.57	1.000000 Head
HM523_poor,0.18 1133.71	1.000000 Head
RJ979_poor,0.18 1176.16	1.000000 Head
MY667_poor,0.18 1107.28	1.000000 Head
HT815_poor,0.18 1148.71	1.000000 Head
SG681_poor,0.18 1100.4	1.000000 Head
SS251_poor,0.18 1047.67	1.000000 Head
SG680_poor,0.18 1127.45	1.000000 Head
UM597_poor,0.18 1082.09	1.000000 Head
RJ994_poor,0.18 1142.16	1.000000 Head