pcf
* control data
restart estimation
      8    1357       5       0       9
1  1  double  point  1  0  0
25.0   -3.0    0.3    0.03    -10  999	  LAMFORGIVE
3.000000e+000  3.000000e+000  1.000000e-003
1.000000e-001 noaui
30  1.000000e-004  3  3  1.000000e-004  3
1  1  1 1  nojcosaveitn reisaveitn PARSAVEITN
* singular value decomposition
1
8 5e-7
0
* parameter groups
khi relative  0.01 0.0 switch 2.0 parabolic
kh relative  0.01 0.0 switch 2.0 parabolic
rch relative  0.01 0.0 switch 2.0 parabolic
base relative  0.01 0.0 switch 2.0 parabolic
res relative  0.01 0.0 switch 2.0 parabolic
* parameter data
K___________	log   factor    1.954907753279000      .3	 30	Kh     1.0      0.0 1
Base________   fixed  factor    750.0000000000000      75	 7500	Base   1.0      0.0 1
Kcollapse___	log   factor   0.7891894521862000      .1	 10	Khi    1.0      0.0 1
Klincoln____	log   factor    4.986799217086000      1	 100	Khi    1.0      0.0 1
Rcollapse___	log   factor   1.5930676700000000E-04 	 .00004	 .004	Rch    -1.0     0.0 1
Recharge____	log   factor   8.9493722700000000E-04  .0001	 .01	Rch    -1.0     0.0 1
Rlincoln____	log   factor   1.0000000000000000E-04  .0001	 .01	Rch    -1.0     0.0 1
rlinesink___    log   factor    1.000000E+00    1.000000E-01    1.000000E+01 res    1.000000E+00    0.000000E+00          1
* observation groups
flux_usgsgag
head_longtrm
head_poor
head_good
head_lake
flux_usgspar
head_fair
flux_usfs
flux_usgsmis
* observation data
ta0006_longtrm          1.440130E+03    5.000000E-01          head_longtrm
ta0009_longtrm          1.559310E+03    5.000000E-01          head_longtrm
ta0001_longtrm          1.190720E+03    5.000000E-01          head_longtrm
ta0217_5_msmts          1.342520E+03    5.000000E-01             head_good
ru0060_qw_weightas~1    1.071000E+03    5.000000E-01             head_good
vb160_verygood          1.445340E+03    5.000000E-01             head_good
sx458_verygood          1.384630E+03    5.000000E-01             head_good
cz073_verygood          1.239470E+03    5.000000E-01             head_good
tay748_good             1.367300E+03    2.500000E-01             head_good
tay2131_good            1.247500E+03    2.500000E-01             head_good
tay2410_good            1.358380E+03    2.500000E-01             head_good
tay2886_good            1.387550E+03    2.500000E-01             head_good
uf398_good              1.665240E+03    2.500000E-01             head_good
hl672_good              1.656250E+03    2.500000E-01             head_good
rd982_good              1.675050E+03    2.500000E-01             head_good
mn825_good              1.634740E+03    2.500000E-01             head_good
td409_good              1.675100E+03    2.500000E-01             head_good
og034_good              1.669080E+03    2.500000E-01             head_good
qy679_good              1.659740E+03    2.500000E-01             head_good
tx177_good              1.666330E+03    2.500000E-01             head_good
uq395_good              1.664680E+03    2.500000E-01             head_good
vb538_good              1.654150E+03    2.500000E-01             head_good
vb603_good              1.654150E+03    2.500000E-01             head_good
kathrynlake             1.457044E+03    1.000000E-01             head_lake
nonalake                1.434692E+03    1.000000E-01             head_lake
polacklake              1.443891E+03    1.000000E-01             head_lake
sprucelake              1.334626E+03    1.000000E-01             head_lake
richterlk               1.437986E+03    1.000000E-01             head_lake
birchlake               1.386148E+03    1.000000E-01             head_lake
hortonlake              1.416004E+03    1.000000E-01             head_lake
hullslake               1.445860E+03    1.000000E-01             head_lake
kleutch                 1.448156E+03    1.000000E-01             head_lake
keyeslake               1.443891E+03    1.000000E-01             head_lake
scooflake               1.446844E+03    1.000000E-01             head_lake
lake19                  1.463904E+03    1.000000E-01             head_lake
lake30                  1.456030E+03    1.000000E-01             head_lake
salemlake               1.420925E+03    1.000000E-01             head_lake
pickerellake            1.446138E+03    1.000000E-01             head_lake
sackettlake             1.469144E+03    1.000000E-01             head_lake
washingtonflowage       1.442897E+03    1.000000E-01             head_lake
esadorelake             1.436007E+03    1.000000E-01             head_lake
schoolhouselake         1.436007E+03    1.000000E-01             head_lake
leutheylake             1.450115E+03    1.000000E-01             head_lake
lostlake                1.330052E+03    1.000000E-01             head_lake
southtwinlake           1.444902E+03    1.000000E-01             head_lake
northtwinlake           1.444902E+03    1.000000E-01             head_lake
clarklake               1.490427E+03    1.000000E-01             head_lake
horseshoelake           1.486280E+03    1.000000E-01             head_lake
mcnamarlake             1.495007E+03    1.000000E-01             head_lake
mudlake                 1.549898E+03    1.000000E-01             head_lake
stonelake               1.617064E+03    1.000000E-01             head_lake
jameslake               1.709009E+03    1.000000E-01             head_lake
sharperlake             1.695033E+03    1.000000E-01             head_lake
harperlake              1.695033E+03    1.000000E-01             head_lake
wellingtonlake          1.584019E+03    1.000000E-01             head_lake
blacklake               1.628967E+03    1.000000E-01             head_lake
skinnerlake             1.640121E+03    1.000000E-01             head_lake
chelsealake             1.529885E+03    1.000000E-01             head_lake
bullheadlake            1.537103E+03    1.000000E-01             head_lake
shearer                 1.576145E+03    1.000000E-01             head_lake
gibbslake               1.532182E+03    1.000000E-01             head_lake
littlechelsealake       1.529885E+03    1.000000E-01             head_lake
croninlake              1.453068E+03    1.000000E-01             head_lake
basslake                1.735075E+03    1.000000E-01             head_lake
worcesterlake           1.543136E+03    1.000000E-01             head_lake
mudlake2                1.301831E+03    1.000000E-01             head_lake
bigbrienslke            1.631056E+03    1.000000E-01             head_lake
ltlbrienlke             1.621050E+03    1.000000E-01             head_lake
uo129_fair              1.460360E+03    5.000000E-02             head_fair
vj021_fair              1.364640E+03    5.000000E-02             head_fair
ve234_fair              1.394130E+03    5.000000E-02             head_fair
eq503_fair              1.436320E+03    5.000000E-02             head_fair
uy741_fair              1.428130E+03    5.000000E-02             head_fair
gl770_fair              1.260170E+03    5.000000E-02             head_fair
tay158_fair             1.224210E+03    5.000000E-02             head_fair
tay160_fair             1.384730E+03    5.000000E-02             head_fair
tay166_fair             1.250290E+03    5.000000E-02             head_fair
tay180_fair             1.234360E+03    5.000000E-02             head_fair
tay188_fair             1.270430E+03    5.000000E-02             head_fair
tay194_fair             1.266950E+03    5.000000E-02             head_fair
tay207_fair             1.346280E+03    5.000000E-02             head_fair
tay242_fair             1.284320E+03    5.000000E-02             head_fair
tay286_fair             1.513350E+03    5.000000E-02             head_fair
tay290_fair             1.302810E+03    5.000000E-02             head_fair
tay296_fair             1.284320E+03    5.000000E-02             head_fair
tay298_fair             1.159880E+03    5.000000E-02             head_fair
tay313_fair             1.258040E+03    5.000000E-02             head_fair
tay321_fair             1.402400E+03    5.000000E-02             head_fair
tay358_fair             1.468030E+03    5.000000E-02             head_fair
tay362_fair             1.223860E+03    5.000000E-02             head_fair
tay392_fair             1.393020E+03    5.000000E-02             head_fair
tay394_fair             1.333720E+03    5.000000E-02             head_fair
tay410_fair             1.241110E+03    5.000000E-02             head_fair
tay422_fair             1.237170E+03    5.000000E-02             head_fair
tay423_fair             1.265240E+03    5.000000E-02             head_fair
tay428_fair             1.218200E+03    5.000000E-02             head_fair
tay430_fair             1.341540E+03    5.000000E-02             head_fair
tay449_fair             1.228640E+03    5.000000E-02             head_fair
tay560_fair             1.232090E+03    5.000000E-02             head_fair
tay578_fair             1.227210E+03    5.000000E-02             head_fair
tay583_fair             1.268290E+03    5.000000E-02             head_fair
tay609_fair             1.225890E+03    5.000000E-02             head_fair
tay639_fair             1.405770E+03    5.000000E-02             head_fair
tay653_fair             1.386180E+03    5.000000E-02             head_fair
tay666_fair             1.232010E+03    5.000000E-02             head_fair
tay705_fair             1.386210E+03    5.000000E-02             head_fair
tay707_fair             1.435500E+03    5.000000E-02             head_fair
tay710_fair             1.253280E+03    5.000000E-02             head_fair
tay759_fair             1.461570E+03    5.000000E-02             head_fair
tay760_fair             1.348360E+03    5.000000E-02             head_fair
tay768_fair             1.438240E+03    5.000000E-02             head_fair
tay796_fair             1.412420E+03    5.000000E-02             head_fair
tay801_fair             1.423450E+03    5.000000E-02             head_fair
tay829_fair             1.553790E+03    5.000000E-02             head_fair
tay839_fair             1.344430E+03    5.000000E-02             head_fair
tay848_fair             1.329540E+03    5.000000E-02             head_fair
tay860_fair             1.428380E+03    5.000000E-02             head_fair
tay881_fair             1.282310E+03    5.000000E-02             head_fair
tay918_fair             1.441130E+03    5.000000E-02             head_fair
tay921_fair             1.478150E+03    5.000000E-02             head_fair
tay935_fair             1.232890E+03    5.000000E-02             head_fair
tay939_fair             1.457430E+03    5.000000E-02             head_fair
tay947_fair             1.257250E+03    5.000000E-02             head_fair
tay970_fair             1.268010E+03    5.000000E-02             head_fair
tay982_fair             1.251590E+03    5.000000E-02             head_fair
tay1040_fair            1.244620E+03    5.000000E-02             head_fair
tay1085_fair            1.468230E+03    5.000000E-02             head_fair
tay1095_fair            1.235580E+03    5.000000E-02             head_fair
tay1141_fair            1.504850E+03    5.000000E-02             head_fair
tay1144_fair            1.184020E+03    5.000000E-02             head_fair
tay1152_fair            1.285950E+03    5.000000E-02             head_fair
tay1173_fair            1.427720E+03    5.000000E-02             head_fair
tay1196_fair            1.389970E+03    5.000000E-02             head_fair
tay1231_fair            1.500180E+03    5.000000E-02             head_fair
tay1236_fair            1.378450E+03    5.000000E-02             head_fair
tay1249_fair            1.462750E+03    5.000000E-02             head_fair
tay1285_fair            1.333490E+03    5.000000E-02             head_fair
tay1305_fair            1.507620E+03    5.000000E-02             head_fair
tay1322_fair            1.347880E+03    5.000000E-02             head_fair
tay1326_fair            1.234970E+03    5.000000E-02             head_fair
tay1328_fair            1.374850E+03    5.000000E-02             head_fair
tay1367_fair            1.371280E+03    5.000000E-02             head_fair
tay1368_fair            1.373630E+03    5.000000E-02             head_fair
tay1393_fair            1.386550E+03    5.000000E-02             head_fair
tay1399_fair            1.248880E+03    5.000000E-02             head_fair
tay1408_fair            1.215220E+03    5.000000E-02             head_fair
tay1463_fair            1.299840E+03    5.000000E-02             head_fair
tay1474_fair            1.227070E+03    5.000000E-02             head_fair
tay1487_fair            1.572250E+03    5.000000E-02             head_fair
tay1516_fair            1.603230E+03    5.000000E-02             head_fair
tay1548_fair            1.373510E+03    5.000000E-02             head_fair
tay1568_fair            1.191100E+03    5.000000E-02             head_fair
tay1581_fair            1.207040E+03    5.000000E-02             head_fair
tay1586_fair            1.161610E+03    5.000000E-02             head_fair
tay1591_fair            1.278920E+03    5.000000E-02             head_fair
tay1627_fair            1.169120E+03    5.000000E-02             head_fair
tay1698_fair            1.436970E+03    5.000000E-02             head_fair
tay1708_fair            1.281040E+03    5.000000E-02             head_fair
tay1733_fair            1.166330E+03    5.000000E-02             head_fair
tay1744_fair            1.245940E+03    5.000000E-02             head_fair
tay1761_fair            1.332390E+03    5.000000E-02             head_fair
tay1808_fair            1.395340E+03    5.000000E-02             head_fair
tay1882_fair            1.273040E+03    5.000000E-02             head_fair
tay1891_fair            1.163560E+03    5.000000E-02             head_fair
tay1892_fair            1.275370E+03    5.000000E-02             head_fair
tay1947_fair            1.418450E+03    5.000000E-02             head_fair
tay1949_fair            1.314230E+03    5.000000E-02             head_fair
tay1960_fair            1.409460E+03    5.000000E-02             head_fair
tay1962_fair            1.406550E+03    5.000000E-02             head_fair
tay1995_fair            1.341390E+03    5.000000E-02             head_fair
tay2036_fair            1.232120E+03    5.000000E-02             head_fair
tay2041_fair            1.226330E+03    5.000000E-02             head_fair
tay2061_fair            1.379280E+03    5.000000E-02             head_fair
tay2062_fair            1.433790E+03    5.000000E-02             head_fair
tay2073_fair            1.248850E+03    5.000000E-02             head_fair
tay2113_fair            1.436960E+03    5.000000E-02             head_fair
tay2123_fair            1.240390E+03    5.000000E-02             head_fair
tay2161_fair            1.240850E+03    5.000000E-02             head_fair
tay2174_fair            1.512010E+03    5.000000E-02             head_fair
tay2186_fair            1.460240E+03    5.000000E-02             head_fair
tay2240_fair            1.179510E+03    5.000000E-02             head_fair
tay2284_fair            1.467460E+03    5.000000E-02             head_fair
tay2316_fair            1.218680E+03    5.000000E-02             head_fair
tay2361_fair            1.219370E+03    5.000000E-02             head_fair
tay2420_fair            1.385450E+03    5.000000E-02             head_fair
tay2462_fair            1.428680E+03    5.000000E-02             head_fair
tay2500_fair            1.249460E+03    5.000000E-02             head_fair
tay2527_fair            1.449530E+03    5.000000E-02             head_fair
tay2528_fair            1.468290E+03    5.000000E-02             head_fair
tay2537_fair            1.208810E+03    5.000000E-02             head_fair
tay2540_fair            1.374860E+03    5.000000E-02             head_fair
tay2588_fair            1.419210E+03    5.000000E-02             head_fair
tay2592_fair            1.315870E+03    5.000000E-02             head_fair
tay2630_fair            1.206380E+03    5.000000E-02             head_fair
tay2637_fair            1.414810E+03    5.000000E-02             head_fair
tay2639_fair            1.333640E+03    5.000000E-02             head_fair
tay2644_fair            1.242940E+03    5.000000E-02             head_fair
tay2654_fair            1.160760E+03    5.000000E-02             head_fair
tay2676_fair            1.249090E+03    5.000000E-02             head_fair
tay2705_fair            1.344170E+03    5.000000E-02             head_fair
tay2749_fair            1.250530E+03    5.000000E-02             head_fair
tay2764_fair            1.419570E+03    5.000000E-02             head_fair
tay2771_fair            1.432220E+03    5.000000E-02             head_fair
tay2787_fair            1.276360E+03    5.000000E-02             head_fair
tay2792_fair            1.285070E+03    5.000000E-02             head_fair
tay2803_fair            1.481600E+03    5.000000E-02             head_fair
tay2812_fair            1.291960E+03    5.000000E-02             head_fair
tay2829_fair            1.448120E+03    5.000000E-02             head_fair
tay2848_fair            1.259760E+03    5.000000E-02             head_fair
tay2863_fair            1.425860E+03    5.000000E-02             head_fair
tay2869_fair            1.228400E+03    5.000000E-02             head_fair
tay2880_fair            1.395490E+03    5.000000E-02             head_fair
tay2881_fair            1.168340E+03    5.000000E-02             head_fair
tay2896_fair            1.491080E+03    5.000000E-02             head_fair
tay2916_fair            1.180940E+03    5.000000E-02             head_fair
tay2941_fair            1.399180E+03    5.000000E-02             head_fair
uk476_fair              1.147270E+03    5.000000E-02             head_fair
gc554_fair              1.213070E+03    5.000000E-02             head_fair
ud953_fair              1.289040E+03    5.000000E-02             head_fair
ud955_fair              1.276710E+03    5.000000E-02             head_fair
uk480_fair              1.627780E+03    5.000000E-02             head_fair
iy617_fair              1.599820E+03    5.000000E-02             head_fair
to645_fair              1.354800E+03    5.000000E-02             head_fair
ua439_fair              1.620590E+03    5.000000E-02             head_fair
rd966_fair              1.624090E+03    5.000000E-02             head_fair
td410_fair              1.665100E+03    5.000000E-02             head_fair
lf339_fair              1.430930E+03    5.000000E-02             head_fair
li785_fair              1.363010E+03    5.000000E-02             head_fair
rd395_fair              1.365490E+03    5.000000E-02             head_fair
pf2415_fair             1.361860E+03    5.000000E-02             head_fair
pf2416_fair             1.372110E+03    5.000000E-02             head_fair
pf2417_fair             1.371320E+03    5.000000E-02             head_fair
pf2418_fair             1.329650E+03    5.000000E-02             head_fair
pf2432_fair             1.463880E+03    5.000000E-02             head_fair
pf2433_fair             1.453540E+03    5.000000E-02             head_fair
pf2434_fair             1.455030E+03    5.000000E-02             head_fair
pf2435_fair             1.406210E+03    5.000000E-02             head_fair
pf2436_fair             1.415680E+03    5.000000E-02             head_fair
pf2437_fair             1.452170E+03    5.000000E-02             head_fair
pf2438_fair             1.457130E+03    5.000000E-02             head_fair
pf2439_fair             1.426370E+03    5.000000E-02             head_fair
pf2440_fair             1.456330E+03    5.000000E-02             head_fair
pf2441_fair             1.459410E+03    5.000000E-02             head_fair
pf2442_fair             1.462620E+03    5.000000E-02             head_fair
pf2443_fair             1.388750E+03    5.000000E-02             head_fair
pf2444_fair             1.388050E+03    5.000000E-02             head_fair
pf2445_fair             1.434010E+03    5.000000E-02             head_fair
pf2446_fair             1.397830E+03    5.000000E-02             head_fair
pf2447_fair             1.401480E+03    5.000000E-02             head_fair
pf2448_fair             1.363540E+03    5.000000E-02             head_fair
pf2449_fair             1.394630E+03    5.000000E-02             head_fair
pf2450_fair             1.387740E+03    5.000000E-02             head_fair
pf2452_fair             1.469780E+03    5.000000E-02             head_fair
pf2453_fair             1.480730E+03    5.000000E-02             head_fair
pf2454_fair             1.352660E+03    5.000000E-02             head_fair
pf2455_fair             1.356560E+03    5.000000E-02             head_fair
pf2456_fair             1.469150E+03    5.000000E-02             head_fair
pf2457_fair             1.412090E+03    5.000000E-02             head_fair
pf2458_fair             1.422160E+03    5.000000E-02             head_fair
pf2470_fair             1.456910E+03    5.000000E-02             head_fair
pf2471_fair             1.471250E+03    5.000000E-02             head_fair
pf2472_fair             1.445810E+03    5.000000E-02             head_fair
pf2473_fair             1.490620E+03    5.000000E-02             head_fair
pf2474_fair             1.475950E+03    5.000000E-02             head_fair
pf2475_fair             1.465820E+03    5.000000E-02             head_fair
pf2391_fair             1.377130E+03    5.000000E-02             head_fair
pf2392_fair             1.399520E+03    5.000000E-02             head_fair
pf2393_fair             1.393420E+03    5.000000E-02             head_fair
pf2394_fair             1.393240E+03    5.000000E-02             head_fair
pf2396_fair             1.360680E+03    5.000000E-02             head_fair
pf2397_fair             1.356750E+03    5.000000E-02             head_fair
pf2398_fair             1.351080E+03    5.000000E-02             head_fair
pf2399_fair             1.381620E+03    5.000000E-02             head_fair
pf2400_fair             1.334320E+03    5.000000E-02             head_fair
pf2401_fair             1.342590E+03    5.000000E-02             head_fair
pf2402_fair             1.357660E+03    5.000000E-02             head_fair
pf2403_fair             1.353770E+03    5.000000E-02             head_fair
pf2404_fair             1.341710E+03    5.000000E-02             head_fair
pf2405_fair             1.324530E+03    5.000000E-02             head_fair
pf2407_fair             1.250270E+03    5.000000E-02             head_fair
pf2408_fair             1.308680E+03    5.000000E-02             head_fair
pf2409_fair             1.363840E+03    5.000000E-02             head_fair
pf2410_fair             1.368840E+03    5.000000E-02             head_fair
pf2411_fair             1.321200E+03    5.000000E-02             head_fair
pf2412_fair             1.350720E+03    5.000000E-02             head_fair
pf2413_fair             1.359300E+03    5.000000E-02             head_fair
pf2414_fair             1.379400E+03    5.000000E-02             head_fair
pf3620_fair             1.692450E+03    5.000000E-02             head_fair
pf3621_fair             1.680280E+03    5.000000E-02             head_fair
pf3622_fair             1.683940E+03    5.000000E-02             head_fair
pf3623_fair             1.687320E+03    5.000000E-02             head_fair
pf3624_fair             1.685210E+03    5.000000E-02             head_fair
pf3625_fair             1.685260E+03    5.000000E-02             head_fair
pf3626_fair             1.715890E+03    5.000000E-02             head_fair
pf3627_fair             1.544340E+03    5.000000E-02             head_fair
pf3628_fair             1.580820E+03    5.000000E-02             head_fair
pf3629_fair             1.624530E+03    5.000000E-02             head_fair
pf3630_fair             1.614870E+03    5.000000E-02             head_fair
pf3631_fair             1.694450E+03    5.000000E-02             head_fair
pf3632_fair             1.666720E+03    5.000000E-02             head_fair
pf3633_fair             1.667130E+03    5.000000E-02             head_fair
pf3634_fair             1.650700E+03    5.000000E-02             head_fair
pf3111_fair             1.473530E+03    5.000000E-02             head_fair
pf3643_fair             1.616730E+03    5.000000E-02             head_fair
pf3644_fair             1.646450E+03    5.000000E-02             head_fair
pf3645_fair             1.668740E+03    5.000000E-02             head_fair
pf3646_fair             1.625940E+03    5.000000E-02             head_fair
pf3647_fair             1.600430E+03    5.000000E-02             head_fair
pf3648_fair             1.595300E+03    5.000000E-02             head_fair
pf3649_fair             1.674870E+03    5.000000E-02             head_fair
pf3650_fair             1.680350E+03    5.000000E-02             head_fair
pf3651_fair             1.636550E+03    5.000000E-02             head_fair
pf3652_fair             1.609010E+03    5.000000E-02             head_fair
pf3653_fair             1.581690E+03    5.000000E-02             head_fair
pf3654_fair             1.575950E+03    5.000000E-02             head_fair
pf3655_fair             1.684270E+03    5.000000E-02             head_fair
pf3656_fair             1.688130E+03    5.000000E-02             head_fair
pf3657_fair             1.673090E+03    5.000000E-02             head_fair
pf3658_fair             1.644720E+03    5.000000E-02             head_fair
pf3659_fair             1.650250E+03    5.000000E-02             head_fair
pf3660_fair             1.620180E+03    5.000000E-02             head_fair
pf3661_fair             1.621910E+03    5.000000E-02             head_fair
pf3662_fair             1.696440E+03    5.000000E-02             head_fair
pf3664_fair             1.620280E+03    5.000000E-02             head_fair
pf3665_fair             1.608790E+03    5.000000E-02             head_fair
pf3666_fair             1.610820E+03    5.000000E-02             head_fair
pf3667_fair             1.615740E+03    5.000000E-02             head_fair
pf3668_fair             1.605210E+03    5.000000E-02             head_fair
pf3669_fair             1.590580E+03    5.000000E-02             head_fair
pf3670_fair             1.672960E+03    5.000000E-02             head_fair
pf3671_fair             1.661490E+03    5.000000E-02             head_fair
pf3672_fair             1.654220E+03    5.000000E-02             head_fair
pf3673_fair             1.625200E+03    5.000000E-02             head_fair
pf3674_fair             1.623160E+03    5.000000E-02             head_fair
pf3675_fair             1.621350E+03    5.000000E-02             head_fair
pf3207_fair             1.520070E+03    5.000000E-02             head_fair
pf3208_fair             1.538850E+03    5.000000E-02             head_fair
pf3209_fair             1.536750E+03    5.000000E-02             head_fair
pf3210_fair             1.538470E+03    5.000000E-02             head_fair
pf3211_fair             1.523500E+03    5.000000E-02             head_fair
pf3212_fair             1.492030E+03    5.000000E-02             head_fair
pf3213_fair             1.492840E+03    5.000000E-02             head_fair
pf3214_fair             1.511210E+03    5.000000E-02             head_fair
pf3215_fair             1.508980E+03    5.000000E-02             head_fair
pf3216_fair             1.522500E+03    5.000000E-02             head_fair
pf3217_fair             1.512790E+03    5.000000E-02             head_fair
pf3218_fair             1.502540E+03    5.000000E-02             head_fair
pf3219_fair             1.550960E+03    5.000000E-02             head_fair
pf3221_fair             1.524230E+03    5.000000E-02             head_fair
pf3222_fair             1.546990E+03    5.000000E-02             head_fair
pf3223_fair             1.559090E+03    5.000000E-02             head_fair
pf3224_fair             1.566270E+03    5.000000E-02             head_fair
pf3225_fair             1.577090E+03    5.000000E-02             head_fair
pf3226_fair             1.579610E+03    5.000000E-02             head_fair
pf3227_fair             1.509780E+03    5.000000E-02             head_fair
pf3228_fair             1.553280E+03    5.000000E-02             head_fair
pf3229_fair             1.528570E+03    5.000000E-02             head_fair
pf3230_fair             1.520800E+03    5.000000E-02             head_fair
pf3231_fair             1.556170E+03    5.000000E-02             head_fair
pf3232_fair             1.534740E+03    5.000000E-02             head_fair
pf3233_fair             1.491530E+03    5.000000E-02             head_fair
pf3234_fair             1.512880E+03    5.000000E-02             head_fair
pf3235_fair             1.536900E+03    5.000000E-02             head_fair
pf3236_fair             1.539110E+03    5.000000E-02             head_fair
pf3237_fair             1.568070E+03    5.000000E-02             head_fair
pf3238_fair             1.554840E+03    5.000000E-02             head_fair
pf3239_fair             1.564950E+03    5.000000E-02             head_fair
pf3240_fair             1.540460E+03    5.000000E-02             head_fair
pf3241_fair             1.491790E+03    5.000000E-02             head_fair
pf3242_fair             1.512640E+03    5.000000E-02             head_fair
pf3243_fair             1.540490E+03    5.000000E-02             head_fair
pf3244_fair             1.529900E+03    5.000000E-02             head_fair
pf3245_fair             1.546830E+03    5.000000E-02             head_fair
pf3246_fair             1.511220E+03    5.000000E-02             head_fair