pcf
* control data
restart estimation
8 1357 5 0 2
1  1  double  point  1  0  0
25.0   -3.0    0.3    0.03    -10  999	  LAMFORGIVE
3.000000e+000  3.000000e+000  1.000000e-003
1.000000e-001 noaui
30  1.000000e-004  3  3  1.000000e-004  3
1  1  1 1  nojcosaveitn reisaveitn PARSAVEITN
* singular value decomposition
1
8 5e-7
0
* parameter groups
Kh     relative   1.000000e-002  0.000000e+000  switch  2.000000e+000  parabolic
Base   relative   1.000000e-002  0.000000e+000  switch  2.000000e+000  parabolic
Khi    relative   1.000000e-002  0.000000e+000  switch  2.000000e+000  parabolic
Rch    relative   1.000000e-002  0.000000e+000  switch  2.000000e+000  parabolic
Res    relative   1.000000e-002  0.000000e+000  switch  2.000000e+000  parabolic
* parameter data
K___________	log   factor   3	 .3	 30	Kh     1.0      0.0 1
Base________	none  factor   750	 75	 7500	Base   1.0      0.0 1
Kcollapse___	log   factor   1	 .1	 10	Khi    1.0      0.0 1
Klincoln____	log   factor   10	 1	 100	Khi    1.0      0.0 1
Rcollapse___	none  factor   .0004	 .00004	 .004	Rch    -1.0     0.0 1
Recharge____	none  factor   .001	 .0001	 .01	Rch    -1.0     0.0 1
Rlincoln____	none  factor   .001	 .0001	 .01	Rch    -1.0     0.0 1
Rlinesink___	none  factor   1	 .1	 10	Res    1.0      0.0 1
* observation groups
Head
Streamflow
* observation data
aa578_poor 1451.51	1.000000 Head
ad350_poor 1620.53	1.000000 Head
ad358_poor 1489.53	1.000000 Head
ad387_poor 1446.07	1.000000 Head
an552_poor 1438.02	1.000000 Head
as675_poor 1332.41	1.000000 Head
az702_poor 1452.66	1.000000 Head
az717_poor 1642.51	1.000000 Head
az719_poor 1268.07	1.000000 Head
ba704_poor 1353.11	1.000000 Head
ba718_poor 1544.46	1.000000 Head
basslake 1735.07545931759	1.000000 Head
bigbrienslke 1631.05643044619	1.000000 Head
birchlake 1386.14829396325	1.000000 Head
blacklake 1628.96653543307	1.000000 Head
bullheadlake 1537.1030183727	1.000000 Head
ca286_poor 1166.27	1.000000 Head
ca289_poor 1444.68	1.000000 Head
chelsealake 1529.88517060367	1.000000 Head
clarklake 1490.42650918635	1.000000 Head
croninlake 1453.06758530184	1.000000 Head
cs401_poor 1437.06	1.000000 Head
cu154_poor 1514.83	1.000000 Head
cu164_poor 1571.91	1.000000 Head
cu497_poor 1421.07	1.000000 Head
cw880_poor 1439.44	1.000000 Head
cz057_poor 1614.62	1.000000 Head
cz073_verygood 1239.47	1.000000 Head
cz084_poor 1783.73	1.000000 Head
db007_poor 1355.71	1.000000 Head
dc367_poor 1552.54	1.000000 Head
dd431_poor 1362.17	1.000000 Head
de747_poor 1341.83	1.000000 Head
de773_poor 1441.36	1.000000 Head
df677_poor 1426.79	1.000000 Head
du503_poor 1622.91	1.000000 Head
du517_poor 1447.13	1.000000 Head
ek104_poor 1241.13	1.000000 Head
ek121_poor 1475.22	1.000000 Head
ep751_poor 1276.18	1.000000 Head
eq503_fair 1436.32	1.000000 Head
esadorelake 1436.00721784777	1.000000 Head
fa006_poor 1471.93	1.000000 Head
ff710_poor 1568.5	1.000000 Head
fg236_poor 1614.89	1.000000 Head
fg257_poor 1441.62	1.000000 Head
fg346_poor 1421.61	1.000000 Head
fg348_poor 1292.02	1.000000 Head
fg349_poor 1342.61	1.000000 Head
fg377_poor 1475.46	1.000000 Head
fg378_poor 1467.82	1.000000 Head
fg379_poor 1480.11	1.000000 Head
fg435_poor 1466.46	1.000000 Head
fg440_poor 1333.56	1.000000 Head
fg460_poor 1360.9	1.000000 Head
fg486_poor 1540.8	1.000000 Head
fg487_poor 1530.93	1.000000 Head
fg496_poor 1509.96	1.000000 Head
fg497_poor 1525.36	1.000000 Head
fg500_poor 1576.99	1.000000 Head
fg867_poor 1284.16	1.000000 Head
fg868_poor 1267.74	1.000000 Head
fg869_poor 1376.26	1.000000 Head
fg870_poor 1410.15	1.000000 Head
fg881_poor 1462.27	1.000000 Head
fg894_poor 1421.18	1.000000 Head
fg911_poor 1596.59	1.000000 Head
fg923_poor 1538.97	1.000000 Head
fg941_poor 1382.3	1.000000 Head
fg943_poor 1662.33	1.000000 Head
fg944_poor 1662.02	1.000000 Head
fg985_poor 1418.42	1.000000 Head
fg998_poor 1443.75	1.000000 Head
fj572_poor 1273.1	1.000000 Head
fj616_poor 1430.09	1.000000 Head
fk029_poor 1486.11	1.000000 Head
fn454_poor 1463.93	1.000000 Head
fn463_poor 1480.8	1.000000 Head
fn480_poor 1186.23	1.000000 Head
fn483_poor 1220.76	1.000000 Head
fn488_poor 1447.46	1.000000 Head
fu673_poor 1443.08	1.000000 Head
fu684_poor 1781.35	1.000000 Head
fy266_poor 1618.35	1.000000 Head
gc309_poor 1328.44	1.000000 Head
gc532_poor 1218.92	1.000000 Head
gc554_fair 1213.07	1.000000 Head
gd260_poor 1208.42	1.000000 Head
gd784_poor 1336.24	1.000000 Head
gd804_poor 1259.79	1.000000 Head
gd930_poor 1560.64	1.000000 Head
gd967_poor 1624.67	1.000000 Head
gd982_poor 1630.47	1.000000 Head
gd983_poor 1619.34	1.000000 Head
gd992_poor 1365.42	1.000000 Head
gi902_poor 1184.55	1.000000 Head
gibbslake 1532.18175853018	1.000000 Head
gl001_poor 1610	1.000000 Head
gl590_poor 1457.33	1.000000 Head
gl591_poor 1458.03	1.000000 Head
gl732_poor 1454.04	1.000000 Head
gl739_poor 1607.39	1.000000 Head
gl750_poor 1223.36	1.000000 Head
gl770_fair 1260.17	1.000000 Head
go312_poor 1261.36	1.000000 Head
go322_poor 1771.23	1.000000 Head
go323_poor 1776.55	1.000000 Head
go324_poor 1700.36	1.000000 Head
go325_poor 1723.35	1.000000 Head
go327_poor 1514.01	1.000000 Head
go331_poor 1629.98	1.000000 Head
go376_poor 1546.25	1.000000 Head
go402_poor 1665.57	1.000000 Head
go403_poor 1668.44	1.000000 Head
go404_poor 1660.16	1.000000 Head
go405_poor 1680.31	1.000000 Head
go406_poor 1757.78	1.000000 Head
go414_poor 1425.39	1.000000 Head
go422_poor 1390.54	1.000000 Head
go423_poor 1390.37	1.000000 Head
go424_poor 1414.93	1.000000 Head
go425_poor 1382.65	1.000000 Head
go427_poor 1433.02	1.000000 Head
go429_poor 1494.87	1.000000 Head
go431_poor 1434.03	1.000000 Head
go435_poor 1352.52	1.000000 Head
go436_poor 1403.27	1.000000 Head
go437_poor 1353.06	1.000000 Head
go438_fair 1370.02	1.000000 Head
go440_poor 1372.05	1.000000 Head
go462_poor 1744.57	1.000000 Head
go464_poor 1679.91	1.000000 Head
go465_poor 1769.22	1.000000 Head
go467_poor 1675.76	1.000000 Head
go468_poor 1802.06	1.000000 Head
go470_poor 1826.11	1.000000 Head
go471_poor 1807.89	1.000000 Head
gu420_poor 1274.83	1.000000 Head
harperlake 1695.03280839895	1.000000 Head
hk024_poor 1633.06	1.000000 Head
hl672_good 1656.25	1.000000 Head
hm514_poor 1171.3	1.000000 Head
horseshoelake 1486.27952755905	1.000000 Head
hortonlake 1416.00393700787	1.000000 Head
hr581_poor 1440.88	1.000000 Head
hr820_poor 1482.29	1.000000 Head
hr835_poor 1400.43	1.000000 Head
hr836_poor 1452.4	1.000000 Head
hr844_poor 1611.92	1.000000 Head
hullslake 1445.85958005249	1.000000 Head
ic887_poor 1645.65	1.000000 Head
ic895_poor 1443.05	1.000000 Head
ic936_poor 1222.67	1.000000 Head
ik462_poor 1582.21	1.000000 Head
ik494_poor 1570.65	1.000000 Head
ik496_poor 1504.09	1.000000 Head
ik498_poor 1654.87	1.000000 Head
iy613_poor 1509.22	1.000000 Head
iy617_fair 1599.82	1.000000 Head
jameslake 1709.00918635171	1.000000 Head
kathrynlake 1457.04396325459	1.000000 Head
kb200_poor 1414.85	1.000000 Head
keyeslake 1443.89107611549	1.000000 Head
kleutch 1448.156167979	1.000000 Head
kn333_poor 1443.34	1.000000 Head
kn654_poor 1474.7	1.000000 Head
kn975_poor 1431.72	1.000000 Head
kn982_poor 1422.25	1.000000 Head
kp886_poor 1581.94	1.000000 Head
kp893_poor 1625.13	1.000000 Head
kv971_poor 1578.95	1.000000 Head
kv976_poor 1660.74	1.000000 Head
kv985_poor 1364.45	1.000000 Head
la621_poor 1684.02	1.000000 Head
la627_poor 1616.92	1.000000 Head
la670_poor 1670.94	1.000000 Head
la678_poor 1191.58	1.000000 Head
la682_poor 1346.28	1.000000 Head
la950_poor 1490.31	1.000000 Head
la959_poor 1532.66	1.000000 Head
la983_poor 1632.24	1.000000 Head
la989_poor 1374.38	1.000000 Head
lake19 1463.90419947507	1.000000 Head
lake30 1456.03018372703	1.000000 Head
lb517_poor 1581.32	1.000000 Head
lc036_poor 1367.2	1.000000 Head
lc754_poor 1264.37	1.000000 Head
lc813_poor 1518.76	1.000000 Head
lc824_poor 1327.28	1.000000 Head
lc841_poor 1390.52	1.000000 Head
leutheylake 1450.11482939633	1.000000 Head
lf339_fair 1430.93	1.000000 Head
lf354_poor 1360.27	1.000000 Head
lf368_poor 1482.16	1.000000 Head
lf372_poor 1635.96	1.000000 Head
li706_poor 1448.85	1.000000 Head
li722_poor 1418.81	1.000000 Head
li745_poor 1201.39	1.000000 Head
li757_poor 1614.19	1.000000 Head
li765_poor 1598.96	1.000000 Head
li783_poor 1577.15	1.000000 Head
li785_fair 1363.01	1.000000 Head
li792_poor 1476.08	1.000000 Head
li798_poor 1567.59	1.000000 Head
littlechelsealake 1529.88517060367	1.000000 Head
lostlake 1330.05249343832	1.000000 Head
ltlbrienlke 1621.0498687664	1.000000 Head
mcnamarlake 1495.00656167979	1.000000 Head
me645_poor 1330.01	1.000000 Head
mk047_poor 1279.48	1.000000 Head
mk808_poor 1417.29	1.000000 Head
mk820_poor 1597.98	1.000000 Head
mk827_poor 1605.64	1.000000 Head
mk841_poor 1349.01	1.000000 Head
mk848_poor 1751.09	1.000000 Head
ml009_poor 1415.02	1.000000 Head
ml014_poor 1276.23	1.000000 Head
ml031_poor 1479.14	1.000000 Head
ml043_poor 1628.76	1.000000 Head
ml054_poor 1461.5	1.000000 Head
ml104_poor 1108.17	1.000000 Head
ml119_poor 1405.86	1.000000 Head
ml120_poor 1350.92	1.000000 Head
ml142_poor 1326.96	1.000000 Head
mn823_poor 1560.2	1.000000 Head
mn825_good 1634.74	1.000000 Head
mn853_poor 1475.77	1.000000 Head
mn854_poor 1573.71	1.000000 Head
mn870_poor 1627.48	1.000000 Head
ms776_poor 1124.36	1.000000 Head
mt256_poor 1494.88	1.000000 Head
mt289_poor 1468.89	1.000000 Head
mudlake 1549.89829396325	1.000000 Head
mudlake2 1301.83070866142	1.000000 Head
mx760_poor 1335.88	1.000000 Head
mx789_poor 1415.41	1.000000 Head
mx792_poor 1422.55	1.000000 Head
my771_poor 1195.23	1.000000 Head
nc501_poor 1281.93	1.000000 Head
ne104_poor 1520.06	1.000000 Head
ne126_poor 1633.95	1.000000 Head
ne132_poor 1461.16	1.000000 Head
ne142_poor 1421.99	1.000000 Head
ne148_poor 1596.4	1.000000 Head
ne175_poor 1636.22	1.000000 Head
ne187_poor 1318.14	1.000000 Head
nj048_poor 1358.12	1.000000 Head
nj067_poor 1443.14	1.000000 Head
nj076_poor 1296.22	1.000000 Head
nj088_poor 1425.58	1.000000 Head
nj127_poor 1450.58	1.000000 Head
nj146_poor 1380.64	1.000000 Head
nj177_poor 1455.95	1.000000 Head
nj194_poor 1489.86	1.000000 Head
nj239_poor 1435.04	1.000000 Head
nj245_poor 1463.54	1.000000 Head
nj247_poor 1459.36	1.000000 Head
nj296_poor 1465.75	1.000000 Head
no611_poor 1464.09	1.000000 Head
no626_poor 1424.8	1.000000 Head
no636_poor 1532.08	1.000000 Head
no642_poor 1426.85	1.000000 Head
no645_poor 1663.47	1.000000 Head
no655_poor 1656.61	1.000000 Head
no657_poor 1514.73	1.000000 Head
no682_poor 1140.09	1.000000 Head
no695_poor 1607.04	1.000000 Head
nonalake 1434.69160104987	1.000000 Head
northtwinlake 1444.90157480315	1.000000 Head
nt379_poor 1132.57	1.000000 Head
nx822_poor 1499.75	1.000000 Head
nx847_poor 1373.15	1.000000 Head
nx863_poor 1570.32	1.000000 Head
nx867_poor 1617.86	1.000000 Head
nx880_poor 1628.05	1.000000 Head
nx898_poor 1604.82	1.000000 Head
ob501_poor 1432.62	1.000000 Head
ob513_poor 1297.34	1.000000 Head
ob535_poor 1613.53	1.000000 Head
ob680_poor 1164.32	1.000000 Head
ob687_poor 1280.62	1.000000 Head
og003_poor 1492.85	1.000000 Head
og004_poor 1458.42	1.000000 Head
og018_poor 1448.27	1.000000 Head
og034_good 1669.08	1.000000 Head
og089_poor 1460.48	1.000000 Head
og092_poor 1479.24	1.000000 Head
oh008_poor 1164.33	1.000000 Head
oh009_poor 1396.49	1.000000 Head
oh011_poor 1621.6	1.000000 Head
oh018_poor 1444.53	1.000000 Head
oi605_poor 1643.57	1.000000 Head
oi613_poor 1473.58	1.000000 Head
oi663_poor 1652.31	1.000000 Head
oi668_poor 1748.65	1.000000 Head
oi685_poor 1629.15	1.000000 Head
oi698_poor 1572.57	1.000000 Head
oq146_poor 1583.99	1.000000 Head
oq171_poor 1525.88	1.000000 Head
oq174_poor 1354.31	1.000000 Head
oq186_poor 1281.05	1.000000 Head
oq194_poor 1290.28	1.000000 Head
oq200_poor 1404.02	1.000000 Head
ou383_poor 1411.89	1.000000 Head
ou618_poor 1612.97	1.000000 Head
ou649_poor 1117.57	1.000000 Head
ou656_poor 1146.68	1.000000 Head
ow303_poor 1238.19	1.000000 Head
ow318_poor 1380.78	1.000000 Head
ow320_poor 1465.98	1.000000 Head
ow338_poor 1458.32	1.000000 Head
pf2391_fair 1377.13	1.000000 Head
pf2392_fair 1399.52	1.000000 Head
pf2393_fair 1393.42	1.000000 Head
pf2394_fair 1393.24	1.000000 Head
pf2395_poor 1349.27	1.000000 Head
pf2396_fair 1360.68	1.000000 Head
pf2397_fair 1356.75	1.000000 Head
pf2398_fair 1351.08	1.000000 Head
pf2399_fair 1381.62	1.000000 Head
pf2400_fair 1334.32	1.000000 Head
pf2401_fair 1342.59	1.000000 Head
pf2402_fair 1357.66	1.000000 Head
pf2403_fair 1353.77	1.000000 Head
pf2404_fair 1341.71	1.000000 Head
pf2405_fair 1324.53	1.000000 Head
pf2406_poor 1316	1.000000 Head
pf2407_fair 1250.27	1.000000 Head
pf2408_fair 1308.68	1.000000 Head
pf2409_fair 1363.84	1.000000 Head
pf2410_fair 1368.84	1.000000 Head
pf2411_fair 1321.2	1.000000 Head
pf2412_fair 1350.72	1.000000 Head
pf2413_fair 1359.3	1.000000 Head
pf2414_fair 1379.4	1.000000 Head
pf2415_fair 1361.86	1.000000 Head
pf2416_fair 1372.11	1.000000 Head
pf2417_fair 1371.32	1.000000 Head
pf2418_fair 1329.65	1.000000 Head
pf2432_fair 1463.88	1.000000 Head
pf2433_fair 1453.54	1.000000 Head
pf2434_fair 1455.03	1.000000 Head
pf2435_fair 1406.21	1.000000 Head
pf2436_fair 1415.68	1.000000 Head
pf2437_fair 1452.17	1.000000 Head
pf2438_fair 1457.13	1.000000 Head
pf2439_fair 1426.37	1.000000 Head
pf2440_fair 1456.33	1.000000 Head
pf2441_fair 1459.41	1.000000 Head
pf2442_fair 1462.62	1.000000 Head
pf2443_fair 1388.75	1.000000 Head
pf2444_fair 1388.05	1.000000 Head
pf2445_fair 1434.01	1.000000 Head
pf2446_fair 1397.83	1.000000 Head
pf2447_fair 1401.48	1.000000 Head
pf2448_fair 1363.54	1.000000 Head
pf2449_fair 1394.63	1.000000 Head
pf2450_fair 1387.74	1.000000 Head
pf2452_fair 1469.78	1.000000 Head
pf2453_fair 1480.73	1.000000 Head
pf2454_fair 1352.66	1.000000 Head
pf2455_fair 1356.56	1.000000 Head
pf2456_fair 1469.15	1.000000 Head
pf2457_fair 1412.09	1.000000 Head
pf2458_fair 1422.16	1.000000 Head
pf2470_fair 1456.91	1.000000 Head
pf2471_fair 1471.25	1.000000 Head
pf2472_fair 1445.81	1.000000 Head
pf2473_fair 1490.62	1.000000 Head
pf2474_fair 1475.95	1.000000 Head
pf2475_fair 1465.82	1.000000 Head
pf3110_poor 1466.19	1.000000 Head
pf3111_fair 1473.53	1.000000 Head
pf3207_fair 1520.07	1.000000 Head
pf3208_fair 1538.85	1.000000 Head
pf3209_fair 1536.75	1.000000 Head
pf3210_fair 1538.47	1.000000 Head
pf3211_fair 1523.5	1.000000 Head
pf3212_fair 1492.03	1.000000 Head
pf3213_fair 1492.84	1.000000 Head
pf3214_fair 1511.21	1.000000 Head
pf3215_fair 1508.98	1.000000 Head
pf3216_fair 1522.5	1.000000 Head
pf3217_fair 1512.79	1.000000 Head
pf3218_fair 1502.54	1.000000 Head
pf3219_fair 1550.96	1.000000 Head
pf3221_fair 1524.23	1.000000 Head
pf3222_fair 1546.99	1.000000 Head
pf3223_fair 1559.09	1.000000 Head
pf3224_fair 1566.27	1.000000 Head
pf3225_fair 1577.09	1.000000 Head
pf3226_fair 1579.61	1.000000 Head
pf3227_fair 1509.78	1.000000 Head
pf3228_fair 1553.28	1.000000 Head
pf3229_fair 1528.57	1.000000 Head
pf3230_fair 1520.8	1.000000 Head
pf3231_fair 1556.17	1.000000 Head
pf3232_fair 1534.74	1.000000 Head
pf3233_fair 1491.53	1.000000 Head
pf3234_fair 1512.88	1.000000 Head
pf3235_fair 1536.9	1.000000 Head
pf3236_fair 1539.11	1.000000 Head
pf3237_fair 1568.07	1.000000 Head
pf3238_fair 1554.84	1.000000 Head
pf3239_fair 1564.95	1.000000 Head
pf3240_fair 1540.46	1.000000 Head
pf3241_fair 1491.79	1.000000 Head
pf3242_fair 1512.64	1.000000 Head
pf3243_fair 1540.49	1.000000 Head
pf3244_fair 1529.9	1.000000 Head
pf3245_fair 1546.83	1.000000 Head
pf3246_fair 1511.22	1.000000 Head
pf3247_fair 1528.63	1.000000 Head
pf3248_fair 1528.48	1.000000 Head
pf3249_fair 1527.63	1.000000 Head
pf3250_fair 1525.93	1.000000 Head
pf3282_fair 1485.21	1.000000 Head
pf3285_fair 1531.31	1.000000 Head
pf3286_fair 1534.51	1.000000 Head
pf3287_fair 1544.24	1.000000 Head
pf3288_fair 1523.53	1.000000 Head
pf3289_fair 1515.62	1.000000 Head
pf3290_fair 1514.55	1.000000 Head
pf3291_fair 1505.32	1.000000 Head
pf3292_fair 1535.82	1.000000 Head
pf3293_fair 1518.15	1.000000 Head
pf3294_fair 1520.68	1.000000 Head
pf3295_fair 1515.22	1.000000 Head
pf3296_fair 1520.04	1.000000 Head
pf3297_fair 1515.13	1.000000 Head
pf3298_fair 1522.32	1.000000 Head
pf3299_fair 1518.16	1.000000 Head
pf3300_fair 1470.37	1.000000 Head
pf3301_fair 1489.91	1.000000 Head
pf3302_fair 1514.23	1.000000 Head
pf3303_fair 1516.3	1.000000 Head
pf3304_fair 1466.4	1.000000 Head
pf3305_fair 1460.53	1.000000 Head
pf3306_fair 1463.85	1.000000 Head
pf3307_fair 1471.46	1.000000 Head
pf3308_fair 1515.65	1.000000 Head
pf3309_fair 1520.85	1.000000 Head
pf3310_fair 1516.68	1.000000 Head
pf3311_fair 1535.15	1.000000 Head
pf3312_fair 1512.86	1.000000 Head
pf3313_fair 1502.43	1.000000 Head
pf3314_fair 1519.72	1.000000 Head
pf3315_fair 1509.86	1.000000 Head
pf3316_fair 1514.03	1.000000 Head
pf3317_fair 1521.66	1.000000 Head
pf3318_fair 1494.06	1.000000 Head
pf3326_fair 1688.82	1.000000 Head
pf3327_fair 1702.84	1.000000 Head
pf3328_fair 1773.17	1.000000 Head
pf3329_fair 1795.15	1.000000 Head
pf3331_fair 1660.43	1.000000 Head
pf3332_fair 1634.66	1.000000 Head
pf3333_fair 1743.31	1.000000 Head
pf3334_fair 1773.11	1.000000 Head
pf3335_fair 1766.87	1.000000 Head
pf3336_fair 1778.65	1.000000 Head
pf3337_fair 1783.35	1.000000 Head
pf3338_fair 1753.19	1.000000 Head
pf3340_fair 1739.31	1.000000 Head
pf3341_fair 1655.8	1.000000 Head
pf3342_fair 1717.67	1.000000 Head
pf3343_fair 1775.19	1.000000 Head
pf3344_fair 1705.72	1.000000 Head
pf3345_fair 1690.31	1.000000 Head
pf3347_fair 1620.39	1.000000 Head
pf3348_fair 1670.87	1.000000 Head
pf3349_fair 1547.28	1.000000 Head
pf3350_fair 1661.86	1.000000 Head
pf3351_fair 1646.3	1.000000 Head
pf3352_fair 1638.72	1.000000 Head
pf3353_fair 1605.62	1.000000 Head
pf3354_fair 1639.8	1.000000 Head
pf3355_fair 1601.22	1.000000 Head
pf3356_poor 1640.04	1.000000 Head
pf3357_fair 1665.42	1.000000 Head
pf3358_fair 1638.18	1.000000 Head
pf3359_fair 1510.9	1.000000 Head
pf3360_poor 1634.22	1.000000 Head
pf3361_fair 1661.49	1.000000 Head
pf3362_fair 1604.36	1.000000 Head
pf3363_fair 1600.02	1.000000 Head
pf3364_fair 1621.02	1.000000 Head
pf3365_fair 1586.52	1.000000 Head
pf3366_fair 1626.44	1.000000 Head
pf3367_fair 1645.76	1.000000 Head
pf3372_fair 1636.48	1.000000 Head
pf3373_fair 1639.66	1.000000 Head
pf3374_fair 1604.03	1.000000 Head
pf3375_fair 1605.03	1.000000 Head
pf3376_fair 1650.18	1.000000 Head
pf3377_fair 1621.9	1.000000 Head
pf3378_fair 1648.9	1.000000 Head
pf3379_fair 1620.54	1.000000 Head
pf3380_fair 1621.41	1.000000 Head
pf3381_fair 1580.01	1.000000 Head
pf3387_fair 1644.04	1.000000 Head
pf3388_fair 1640.44	1.000000 Head
pf3389_fair 1583.76	1.000000 Head
pf3393_fair 1643	1.000000 Head
pf3394_fair 1613.56	1.000000 Head
pf3395_fair 1610.51	1.000000 Head
pf3396_fair 1611.28	1.000000 Head
pf3397_fair 1604.43	1.000000 Head
pf3398_fair 1598.39	1.000000 Head
pf3399_fair 1570.15	1.000000 Head
pf3403_fair 1603.6	1.000000 Head
pf3404_fair 1578.67	1.000000 Head
pf3407_fair 1611.8	1.000000 Head
pf3408_fair 1646.58	1.000000 Head
pf3409_fair 1571.2	1.000000 Head
pf3410_fair 1599.48	1.000000 Head
pf3411_fair 1548.23	1.000000 Head
pf3423_fair 1469.99	1.000000 Head
pf3425_fair 1456.2	1.000000 Head
pf3426_fair 1429.43	1.000000 Head
pf3434_fair 1510.98	1.000000 Head
pf3435_fair 1526.98	1.000000 Head
pf3436_fair 1457.45	1.000000 Head
pf3438_fair 1481.78	1.000000 Head
pf3440_fair 1475.52	1.000000 Head
pf3441_fair 1490.9	1.000000 Head
pf3442_fair 1483.81	1.000000 Head
pf3443_fair 1487.52	1.000000 Head
pf3444_fair 1464.39	1.000000 Head
pf3445_fair 1463.77	1.000000 Head
pf3446_fair 1502.28	1.000000 Head
pf3447_fair 1491.71	1.000000 Head
pf3448_fair 1470.05	1.000000 Head
pf3449_fair 1472.14	1.000000 Head
pf3450_fair 1480.83	1.000000 Head
pf3451_fair 1481.42	1.000000 Head
pf3452_poor 1512.14	1.000000 Head
pf3453_fair 1475.47	1.000000 Head
pf3454_fair 1481.93	1.000000 Head
pf3455_fair 1473.83	1.000000 Head
pf3456_fair 1451.68	1.000000 Head
pf3458_fair 1448.38	1.000000 Head
pf3459_fair 1444.55	1.000000 Head
pf3460_fair 1443.4	1.000000 Head
pf3461_fair 1420.09	1.000000 Head
pf3462_fair 1410.75	1.000000 Head
pf3463_fair 1436.53	1.000000 Head
pf3464_fair 1420.17	1.000000 Head
pf3465_fair 1401.21	1.000000 Head
pf3467_fair 1394.77	1.000000 Head
pf3468_fair 1391.33	1.000000 Head
pf3469_fair 1403.71	1.000000 Head
pf3470_fair 1395.72	1.000000 Head
pf3471_fair 1487.55	1.000000 Head
pf3472_fair 1494.39	1.000000 Head
pf3473_fair 1505.88	1.000000 Head
pf3474_fair 1498.64	1.000000 Head
pf3475_fair 1496.77	1.000000 Head
pf3476_fair 1498.84	1.000000 Head
pf3477_fair 1538.31	1.000000 Head
pf3478_fair 1531.6	1.000000 Head
pf3479_fair 1518.2	1.000000 Head
pf3480_fair 1505.11	1.000000 Head
pf3481_fair 1485.86	1.000000 Head
pf3482_fair 1551.67	1.000000 Head
pf3483_fair 1552.11	1.000000 Head
pf3484_fair 1501.62	1.000000 Head
pf3507_fair 1461.62	1.000000 Head
pf3508_fair 1429.64	1.000000 Head
pf3509_fair 1466.36	1.000000 Head
pf3510_fair 1472.25	1.000000 Head
pf3511_fair 1506.04	1.000000 Head
pf3512_fair 1441.95	1.000000 Head
pf3513_fair 1413.16	1.000000 Head
pf3514_fair 1462.79	1.000000 Head
pf3515_fair 1481.11	1.000000 Head
pf3516_fair 1513.83	1.000000 Head
pf3517_fair 1512.35	1.000000 Head
pf3518_fair 1509.11	1.000000 Head
pf3519_fair 1505.52	1.000000 Head
pf3520_fair 1513.29	1.000000 Head
pf3521_fair 1517.07	1.000000 Head
pf3522_fair 1492.09	1.000000 Head
pf3523_fair 1493.27	1.000000 Head
pf3524_fair 1500.58	1.000000 Head
pf3525_fair 1450.82	1.000000 Head
pf3526_fair 1487.54	1.000000 Head
pf3529_fair 1469.08	1.000000 Head
pf3530_fair 1501.71	1.000000 Head
pf3540_fair 1494.95	1.000000 Head
pf3541_fair 1477.67	1.000000 Head
pf3542_fair 1481.43	1.000000 Head
pf3543_fair 1516.15	1.000000 Head
pf3544_poor 1530.93	1.000000 Head
pf3545_fair 1489.14	1.000000 Head
pf3546_fair 1446.43	1.000000 Head
pf3547_fair 1477.97	1.000000 Head
pf3548_fair 1506.7	1.000000 Head
pf3549_fair 1496.41	1.000000 Head
pf3550_fair 1500.15	1.000000 Head
pf3551_fair 1506.95	1.000000 Head
pf3552_poor 1501.07	1.000000 Head
pf3553_fair 1521.25	1.000000 Head
pf3554_fair 1485.91	1.000000 Head
pf3555_fair 1456.87	1.000000 Head
pf3556_fair 1454.53	1.000000 Head
pf3557_fair 1458.66	1.000000 Head
pf3558_fair 1468.43	1.000000 Head
pf3559_fair 1492.34	1.000000 Head
pf3561_fair 1560.78	1.000000 Head
pf3562_fair 1640.33	1.000000 Head
pf3563_fair 1588.76	1.000000 Head
pf3564_fair 1571.57	1.000000 Head
pf3565_fair 1571.73	1.000000 Head
pf3566_fair 1590.17	1.000000 Head
pf3568_fair 1592.36	1.000000 Head
pf3569_fair 1597.5	1.000000 Head
pf3570_fair 1613.36	1.000000 Head
pf3571_fair 1605.77	1.000000 Head
pf3572_fair 1566.01	1.000000 Head
pf3573_fair 1548.12	1.000000 Head
pf3574_fair 1544.4	1.000000 Head
pf3575_fair 1557.71	1.000000 Head
pf3576_fair 1504.02	1.000000 Head
pf3577_fair 1542.55	1.000000 Head
pf3578_fair 1542.14	1.000000 Head
pf3579_fair 1533.39	1.000000 Head
pf3580_fair 1532.95	1.000000 Head
pf3581_fair 1559.36	1.000000 Head
pf3582_fair 1560.6	1.000000 Head
pf3583_fair 1582.2	1.000000 Head
pf3584_fair 1567.84	1.000000 Head
pf3585_fair 1544.96	1.000000 Head
pf3586_fair 1532.9	1.000000 Head
pf3587_fair 1514.15	1.000000 Head
pf3588_fair 1496.44	1.000000 Head
pf3589_fair 1522.93	1.000000 Head
pf3590_fair 1497.5	1.000000 Head
pf3591_fair 1493.06	1.000000 Head
pf3592_fair 1518.23	1.000000 Head
pf3593_fair 1520.04	1.000000 Head
pf3603_fair 1572.85	1.000000 Head
pf3604_fair 1588.53	1.000000 Head
pf3605_fair 1604.73	1.000000 Head
pf3606_fair 1602.86	1.000000 Head
pf3607_fair 1597.24	1.000000 Head
pf3608_fair 1647.29	1.000000 Head
pf3610_fair 1645.33	1.000000 Head
pf3611_fair 1655.12	1.000000 Head
pf3612_fair 1583.78	1.000000 Head
pf3614_fair 1588.07	1.000000 Head
pf3615_fair 1604.92	1.000000 Head
pf3616_fair 1585.35	1.000000 Head
pf3617_poor 1593.23	1.000000 Head
pf3618_fair 1627.52	1.000000 Head
pf3620_fair 1692.45	1.000000 Head
pf3621_fair 1680.28	1.000000 Head
pf3622_fair 1683.94	1.000000 Head
pf3623_fair 1687.32	1.000000 Head
pf3624_fair 1685.21	1.000000 Head
pf3625_fair 1685.26	1.000000 Head
pf3626_fair 1715.89	1.000000 Head
pf3627_fair 1544.34	1.000000 Head
pf3628_fair 1580.82	1.000000 Head
pf3629_fair 1624.53	1.000000 Head
pf3630_fair 1614.87	1.000000 Head
pf3631_fair 1694.45	1.000000 Head
pf3632_fair 1666.72	1.000000 Head
pf3633_fair 1667.13	1.000000 Head
pf3634_fair 1650.7	1.000000 Head
pf3643_fair 1616.73	1.000000 Head
pf3644_fair 1646.45	1.000000 Head
pf3645_fair 1668.74	1.000000 Head
pf3646_fair 1625.94	1.000000 Head
pf3647_fair 1600.43	1.000000 Head
pf3648_fair 1595.3	1.000000 Head
pf3649_fair 1674.87	1.000000 Head
pf3650_fair 1680.35	1.000000 Head
pf3651_fair 1636.55	1.000000 Head
pf3652_fair 1609.01	1.000000 Head
pf3653_fair 1581.69	1.000000 Head
pf3654_fair 1575.95	1.000000 Head
pf3655_fair 1684.27	1.000000 Head
pf3656_fair 1688.13	1.000000 Head
pf3657_fair 1673.09	1.000000 Head
pf3658_fair 1644.72	1.000000 Head
pf3659_fair 1650.25	1.000000 Head
pf3660_fair 1620.18	1.000000 Head
pf3661_fair 1621.91	1.000000 Head
pf3662_fair 1696.44	1.000000 Head
pf3664_fair 1620.28	1.000000 Head
pf3665_fair 1608.79	1.000000 Head
pf3666_fair 1610.82	1.000000 Head
pf3667_fair 1615.74	1.000000 Head
pf3668_fair 1605.21	1.000000 Head
pf3669_fair 1590.58	1.000000 Head
pf3670_fair 1672.96	1.000000 Head
pf3671_fair 1661.49	1.000000 Head
pf3672_fair 1654.22	1.000000 Head
pf3673_fair 1625.2	1.000000 Head
pf3674_fair 1623.16	1.000000 Head
pf3675_fair 1621.35	1.000000 Head
pf3730_fair 1519.23	1.000000 Head
pf3733_fair 1517.03	1.000000 Head
pf3734_fair 1526.31	1.000000 Head
pf3735_fair 1502.85	1.000000 Head
pf3736_fair 1509.04	1.000000 Head
pf3737_poor 1522.69	1.000000 Head
pf3738_fair 1471.77	1.000000 Head
pf3739_fair 1476.94	1.000000 Head
pf3740_fair 1493.97	1.000000 Head
pf3741_fair 1500.24	1.000000 Head
pf3742_fair 1497.7	1.000000 Head
pf3745_fair 1509.21	1.000000 Head
pf3746_fair 1502.42	1.000000 Head
pf3747_fair 1492.03	1.000000 Head
pf3749_fair 1502.78	1.000000 Head
pf3750_fair 1514.08	1.000000 Head
pf3811_fair 1533.56	1.000000 Head
pf3812_fair 1525.26	1.000000 Head
pf3813_fair 1519.88	1.000000 Head
pf3814_fair 1527.4	1.000000 Head
pf3815_fair 1530.54	1.000000 Head
pf3816_fair 1517.03	1.000000 Head
pf3817_fair 1541	1.000000 Head
pf3818_fair 1528.99	1.000000 Head
pf3819_fair 1640.51	1.000000 Head
pf3820_fair 1602.5	1.000000 Head
pf3821_fair 1622.51	1.000000 Head
pf3822_fair 1641.37	1.000000 Head
pf3823_fair 1637.98	1.000000 Head
pf3861_fair 1632.94	1.000000 Head
pf3862_fair 1648.37	1.000000 Head
pf3863_fair 1660.6	1.000000 Head
pf3864_fair 1638.09	1.000000 Head
pf3867_fair 1622.51	1.000000 Head
pf3868_fair 1609.19	1.000000 Head
pf3869_fair 1599.47	1.000000 Head
pf3870_fair 1653.62	1.000000 Head
pf3871_fair 1649.84	1.000000 Head
pf3872_fair 1637.18	1.000000 Head
pf3873_fair 1691.27	1.000000 Head
pf3874_fair 1674.01	1.000000 Head
pf3875_fair 1662.51	1.000000 Head
pf3876_fair 1618.86	1.000000 Head
pf3877_fair 1635.97	1.000000 Head
pf3888_fair 1657.74	1.000000 Head
pf3890_fair 1665.67	1.000000 Head
pickerellake 1446.13845144357	1.000000 Head
polacklake 1443.89107611549	1.000000 Head
qj777_poor 1501.17	1.000000 Head
qj785_poor 1455.42	1.000000 Head
qj786_poor 1380.87	1.000000 Head
qj796_poor 1459.54	1.000000 Head
qj808_poor 1208.9	1.000000 Head
qj810_poor 1397.54	1.000000 Head
qj811_poor 1626	1.000000 Head
qj812_poor 1466.53	1.000000 Head
ql604_poor 1698.62	1.000000 Head
ql607_poor 1427.87	1.000000 Head
ql617_poor 1611.63	1.000000 Head
ql625_poor 1390.3	1.000000 Head
ql635_poor 1532.1	1.000000 Head
ql642_poor 1240.61	1.000000 Head
ql653_poor 1663.06	1.000000 Head
ql665_poor 1154.79	1.000000 Head
ql676_poor 1624.4	1.000000 Head
ql678_poor 1527.24	1.000000 Head
ql694_poor 1431.85	1.000000 Head
qm009_poor 1435.22	1.000000 Head
qm045_poor 1454.96	1.000000 Head
qm048_poor 1225.1	1.000000 Head
qm050_poor 1216.89	1.000000 Head
qm056_poor 1196.59	1.000000 Head
qm057_poor 1484.88	1.000000 Head
qm062_poor 1615.55	1.000000 Head
qm070_poor 1252.06	1.000000 Head
qm079_poor 1256.26	1.000000 Head
qm102_poor 1246.84	1.000000 Head
qm164_poor 1432.65	1.000000 Head
qm165_poor 1459.38	1.000000 Head
qm169_poor 1578.45	1.000000 Head
qm176_poor 1220.94	1.000000 Head
qm188_poor 1337.28	1.000000 Head
qm193_poor 1482.72	1.000000 Head
qy610_poor 1335.09	1.000000 Head
qy620_poor 1420.37	1.000000 Head
qy622_poor 1611.79	1.000000 Head
qy635_poor 1471.95	1.000000 Head
qy678_poor 1633.04	1.000000 Head
qy679_good 1659.74	1.000000 Head
qy699_poor 1375.12	1.000000 Head
qz331_poor 1336.52	1.000000 Head
qz356_poor 1628.44	1.000000 Head
qz367_poor 1761.08	1.000000 Head
qz374_poor 1274.75	1.000000 Head
qz391_poor 1366.36	1.000000 Head
qz403_poor 1436.1	1.000000 Head
qz412_poor 1484.59	1.000000 Head
qz421_poor 1475.49	1.000000 Head
qz440_poor 1149.5	1.000000 Head
qz441_poor 1215.86	1.000000 Head
qz446_poor 1430.79	1.000000 Head
qz448_poor 1401.4	1.000000 Head
qz459_poor 1389.92	1.000000 Head
qz461_poor 1289.04	1.000000 Head
qz474_poor 1272.58	1.000000 Head
qz489_poor 1226.58	1.000000 Head
rd310_poor 1612.91	1.000000 Head
rd315_poor 1515.35	1.000000 Head
rd324_poor 1492.92	1.000000 Head
rd331_poor 1622.48	1.000000 Head
rd338_poor 1104.77	1.000000 Head
rd346_poor 1617.58	1.000000 Head
rd349_poor 1261.24	1.000000 Head
rd357_poor 1792.36	1.000000 Head
rd387_poor 1572.61	1.000000 Head
rd391_poor 1618.09	1.000000 Head
rd395_fair 1365.49	1.000000 Head
rd966_fair 1624.09	1.000000 Head
rd976_poor 1220.57	1.000000 Head
rd982_good 1675.05	1.000000 Head
rd987_poor 1698.07	1.000000 Head