pcf
* control data
restart regularisation
   4692  13001      6    9085     12
    6     2 single point   1   0   0
  5.0  -3.0   0.3  0.03    10
 15.0  15.0 0.001  0
  0.1
    0  0.01     3     3  0.01     3
    1     1     1
* singular value decomposition
         1
      4200     5E-07
         0
* parameter groups
HK     relative 0.01  0.0  switch  2.0 parabolic
ANIZ   relative 0.01  0.0  switch  2.0 parabolic
HTR    relative 0.01  0.0  switch  2.0 parabolic
HTS    relative 0.01  0.0  switch  2.0 parabolic
ALFA   relative 0.01  0.0  switch  2.0 parabolic
THET   relative 0.01  0.0  switch  2.0 parabolic
* parameter data
hk_001            log  factor    20.10000      1.0000000e-05  2.0100000e+01     hk      1.0000      0.0000   1
hk_002            log  factor    17.21944      1.0000000e-05  2.0100000e+01     hk      1.0000      0.0000   1
hk_003          fixed  factor    999999.0      0.0000000e+00       99999999     hk      1.0000      0.0000   1
hk_004          fixed  factor    999999.0      0.0000000e+00       99999999     hk      1.0000      0.0000   1
hk_005          fixed  factor    999999.0      0.0000000e+00       99999999     hk      1.0000      0.0000   1
hk_006          fixed  factor    999999.0      0.0000000e+00       99999999     hk      1.0000      0.0000   1
hk_007          fixed  factor    999999.0      0.0000000e+00       99999999     hk      1.0000      0.0000   1
hk_008          fixed  factor    999999.0      0.0000000e+00       99999999     hk      1.0000      0.0000   1
hk_009          fixed  factor    999999.0      0.0000000e+00       99999999     hk      1.0000      0.0000   1
hk_010          fixed  factor    999999.0      0.0000000e+00       99999999     hk      1.0000      0.0000   1
hk_011          fixed  factor    999999.0      0.0000000e+00       99999999     hk      1.0000      0.0000   1
hk_012          fixed  factor    999999.0      0.0000000e+00       99999999     hk      1.0000      0.0000   1
hk_013          fixed  factor    999999.0      0.0000000e+00       99999999     hk      1.0000      0.0000   1
hk_014          fixed  factor    999999.0      0.0000000e+00       99999999     hk      1.0000      0.0000   1
hk_015          fixed  factor    999999.0      0.0000000e+00       99999999     hk      1.0000      0.0000   1
hk_016          fixed  factor    999999.0      0.0000000e+00       99999999     hk      1.0000      0.0000   1
hk_017          fixed  factor    999999.0      0.0000000e+00       99999999     hk      1.0000      0.0000   1
hk_018          fixed  factor    999999.0      0.0000000e+00       99999999     hk      1.0000      0.0000   1
hk_019          fixed  factor    999999.0      0.0000000e+00       99999999     hk      1.0000      0.0000   1
hk_020          fixed  factor    999999.0      0.0000000e+00       99999999     hk      1.0000      0.0000   1
hk_021          fixed  factor    999999.0      0.0000000e+00       99999999     hk      1.0000      0.0000   1
hk_022            log  factor   1.9843390E-02  1.0000000e-05  2.0100000e+01     hk      1.0000      0.0000   1
hk_023            log  factor   1.9657484E-02  1.0000000e-05  2.0100000e+01     hk      1.0000      0.0000   1
hk_024            log  factor    20.10000      1.0000000e-05  2.0100000e+01     hk      1.0000      0.0000   1
hk_025            log  factor    20.10000      1.0000000e-05  2.0100000e+01     hk      1.0000      0.0000   1
hk_026            log  factor    16.43984      1.0000000e-05  2.0100000e+01     hk      1.0000      0.0000   1
hk_027            log  factor    18.48580      1.0000000e-05  2.0100000e+01     hk      1.0000      0.0000   1
hk_028            log  factor    20.10000      1.0000000e-05  2.0100000e+01     hk      1.0000      0.0000   1
hk_029          fixed  factor    999999.0      0.0000000e+00       99999999     hk      1.0000      0.0000   1
hk_030          fixed  factor    999999.0      0.0000000e+00       99999999     hk      1.0000      0.0000   1
hk_031          fixed  factor    999999.0      0.0000000e+00       99999999     hk      1.0000      0.0000   1
hk_032          fixed  factor    999999.0      0.0000000e+00       99999999     hk      1.0000      0.0000   1
hk_033          fixed  factor    999999.0      0.0000000e+00       99999999     hk      1.0000      0.0000   1
hk_034          fixed  factor    999999.0      0.0000000e+00       99999999     hk      1.0000      0.0000   1
hk_035          fixed  factor    999999.0      0.0000000e+00       99999999     hk      1.0000      0.0000   1
hk_036          fixed  factor    999999.0      0.0000000e+00       99999999     hk      1.0000      0.0000   1
hk_037          fixed  factor    999999.0      0.0000000e+00       99999999     hk      1.0000      0.0000   1
hk_038          fixed  factor    999999.0      0.0000000e+00       99999999     hk      1.0000      0.0000   1
hk_039          fixed  factor    999999.0      0.0000000e+00       99999999     hk      1.0000      0.0000   1
hk_040          fixed  factor    999999.0      0.0000000e+00       99999999     hk      1.0000      0.0000   1
hk_041          fixed  factor    999999.0      0.0000000e+00       99999999     hk      1.0000      0.0000   1
hk_042          fixed  factor    999999.0      0.0000000e+00       99999999     hk      1.0000      0.0000   1
hk_043          fixed  factor    999999.0      0.0000000e+00       99999999     hk      1.0000      0.0000   1
hk_044          fixed  factor    999999.0      0.0000000e+00       99999999     hk      1.0000      0.0000   1
hk_045            log  factor    12.91000      1.0000000e-05  2.0100000e+01     hk      1.0000      0.0000   1
hk_046            log  factor    12.53551      1.0000000e-05  2.0100000e+01     hk      1.0000      0.0000   1
hk_047            log  factor    20.10000      1.0000000e-05  2.0100000e+01     hk      1.0000      0.0000   1
hk_048            log  factor    20.10000      1.0000000e-05  2.0100000e+01     hk      1.0000      0.0000   1
hk_049            log  factor    20.10000      1.0000000e-05  2.0100000e+01     hk      1.0000      0.0000   1
hk_050            log  factor    20.10000      1.0000000e-05  2.0100000e+01     hk      1.0000      0.0000   1
hk_051            log  factor    18.63713      1.0000000e-05  2.0100000e+01     hk      1.0000      0.0000   1
hk_052            log  factor    18.27534      1.0000000e-05  2.0100000e+01     hk      1.0000      0.0000   1
hk_053          fixed  factor    999999.0      0.0000000e+00       99999999     hk      1.0000      0.0000   1
hk_054          fixed  factor    999999.0      0.0000000e+00       99999999     hk      1.0000      0.0000   1
hk_055          fixed  factor    999999.0      0.0000000e+00       99999999     hk      1.0000      0.0000   1
hk_056          fixed  factor    999999.0      0.0000000e+00       99999999     hk      1.0000      0.0000   1
hk_057          fixed  factor    999999.0      0.0000000e+00       99999999     hk      1.0000      0.0000   1
hk_058          fixed  factor    999999.0      0.0000000e+00       99999999     hk      1.0000      0.0000   1
hk_059          fixed  factor    999999.0      0.0000000e+00       99999999     hk      1.0000      0.0000   1
hk_060          fixed  factor    999999.0      0.0000000e+00       99999999     hk      1.0000      0.0000   1
hk_061          fixed  factor    999999.0      0.0000000e+00       99999999     hk      1.0000      0.0000   1
hk_062          fixed  factor    999999.0      0.0000000e+00       99999999     hk      1.0000      0.0000   1
hk_063          fixed  factor    999999.0      0.0000000e+00       99999999     hk      1.0000      0.0000   1
hk_064          fixed  factor    999999.0      0.0000000e+00       99999999     hk      1.0000      0.0000   1
hk_065          fixed  factor    999999.0      0.0000000e+00       99999999     hk      1.0000      0.0000   1
hk_066          fixed  factor    999999.0      0.0000000e+00       99999999     hk      1.0000      0.0000   1
hk_067          fixed  factor    999999.0      0.0000000e+00       99999999     hk      1.0000      0.0000   1
hk_068            log  factor    20.10000      1.0000000e-05  2.0100000e+01     hk      1.0000      0.0000   1
hk_069            log  factor    13.28448      1.0000000e-05  2.0100000e+01     hk      1.0000      0.0000   1
hk_070            log  factor    18.10910      1.0000000e-05  2.0100000e+01     hk      1.0000      0.0000   1
hk_071            log  factor    20.10000      1.0000000e-05  2.0100000e+01     hk      1.0000      0.0000   1
hk_072            log  factor    20.10000      1.0000000e-05  2.0100000e+01     hk      1.0000      0.0000   1
hk_073            log  factor    20.10000      1.0000000e-05  2.0100000e+01     hk      1.0000      0.0000   1
hk_074            log  factor    16.31239      1.0000000e-05  2.0100000e+01     hk      1.0000      0.0000   1
hk_075            log  factor    19.22252      1.0000000e-05  2.0100000e+01     hk      1.0000      0.0000   1
hk_076            log  factor    12.78633      1.0000000e-05  2.0100000e+01     hk      1.0000      0.0000   1
hk_077            log  factor    20.10000      1.0000000e-05  2.0100000e+01     hk      1.0000      0.0000   1
hk_078          fixed  factor    999999.0      0.0000000e+00       99999999     hk      1.0000      0.0000   1
hk_079          fixed  factor    999999.0      0.0000000e+00       99999999     hk      1.0000      0.0000   1
hk_080          fixed  factor    999999.0      0.0000000e+00       99999999     hk      1.0000      0.0000   1
hk_081          fixed  factor    999999.0      0.0000000e+00       99999999     hk      1.0000      0.0000   1
hk_082          fixed  factor    999999.0      0.0000000e+00       99999999     hk      1.0000      0.0000   1
hk_083          fixed  factor    999999.0      0.0000000e+00       99999999     hk      1.0000      0.0000   1
hk_084          fixed  factor    999999.0      0.0000000e+00       99999999     hk      1.0000      0.0000   1
hk_085          fixed  factor    999999.0      0.0000000e+00       99999999     hk      1.0000      0.0000   1
hk_086          fixed  factor    999999.0      0.0000000e+00       99999999     hk      1.0000      0.0000   1
hk_087          fixed  factor    999999.0      0.0000000e+00       99999999     hk      1.0000      0.0000   1
hk_088          fixed  factor    999999.0      0.0000000e+00       99999999     hk      1.0000      0.0000   1
hk_089          fixed  factor    999999.0      0.0000000e+00       99999999     hk      1.0000      0.0000   1
hk_090          fixed  factor    999999.0      0.0000000e+00       99999999     hk      1.0000      0.0000   1
hk_091            log  factor    20.10000      1.0000000e-05  2.0100000e+01     hk      1.0000      0.0000   1
hk_092            log  factor    18.43565      1.0000000e-05  2.0100000e+01     hk      1.0000      0.0000   1
hk_093            log  factor    20.10000      1.0000000e-05  2.0100000e+01     hk      1.0000      0.0000   1
hk_094            log  factor    20.10000      1.0000000e-05  2.0100000e+01     hk      1.0000      0.0000   1
hk_095            log  factor    19.30372      1.0000000e-05  2.0100000e+01     hk      1.0000      0.0000   1
hk_096            log  factor    16.81010      1.0000000e-05  2.0100000e+01     hk      1.0000      0.0000   1
hk_097            log  factor    20.10000      1.0000000e-05  2.0100000e+01     hk      1.0000      0.0000   1
hk_098            log  factor    17.15076      1.0000000e-05  2.0100000e+01     hk      1.0000      0.0000   1
hk_099            log  factor    19.27919      1.0000000e-05  2.0100000e+01     hk      1.0000      0.0000   1
hk_100            log  factor    20.10000      1.0000000e-05  2.0100000e+01     hk      1.0000      0.0000   1
hk_101            log  factor    17.67159      1.0000000e-05  2.0100000e+01     hk      1.0000      0.0000   1
hk_102          fixed  factor    999999.0      0.0000000e+00       99999999     hk      1.0000      0.0000   1
hk_103          fixed  factor    999999.0      0.0000000e+00       99999999     hk      1.0000      0.0000   1
hk_104          fixed  factor    999999.0      0.0000000e+00       99999999     hk      1.0000      0.0000   1
hk_105          fixed  factor    999999.0      0.0000000e+00       99999999     hk      1.0000      0.0000   1
hk_106          fixed  factor    999999.0      0.0000000e+00       99999999     hk      1.0000      0.0000   1
hk_107          fixed  factor    999999.0      0.0000000e+00       99999999     hk      1.0000      0.0000   1
hk_108          fixed  factor    999999.0      0.0000000e+00       99999999     hk      1.0000      0.0000   1
hk_109          fixed  factor    999999.0      0.0000000e+00       99999999     hk      1.0000      0.0000   1
hk_110          fixed  factor    999999.0      0.0000000e+00       99999999     hk      1.0000      0.0000   1
hk_111          fixed  factor    999999.0      0.0000000e+00       99999999     hk      1.0000      0.0000   1
hk_112          fixed  factor    999999.0      0.0000000e+00       99999999     hk      1.0000      0.0000   1
hk_113            log  factor    20.10000      1.0000000e-05  2.0100000e+01     hk      1.0000      0.0000   1
hk_114            log  factor    15.51989      1.0000000e-05  2.0100000e+01     hk      1.0000      0.0000   1
hk_115            log  factor    16.59144      1.0000000e-05  2.0100000e+01     hk      1.0000      0.0000   1
hk_116            log  factor    18.24563      1.0000000e-05  2.0100000e+01     hk      1.0000      0.0000   1
hk_117            log  factor    20.10000      1.0000000e-05  2.0100000e+01     hk      1.0000      0.0000   1
hk_118            log  factor    20.10000      1.0000000e-05  2.0100000e+01     hk      1.0000      0.0000   1
hk_119            log  factor    20.10000      1.0000000e-05  2.0100000e+01     hk      1.0000      0.0000   1
hk_120            log  factor    19.02093      1.0000000e-05  2.0100000e+01     hk      1.0000      0.0000   1
hk_121            log  factor    17.89760      1.0000000e-05  2.0100000e+01     hk      1.0000      0.0000   1
hk_122            log  factor    20.10000      1.0000000e-05  2.0100000e+01     hk      1.0000      0.0000   1
hk_123            log  factor    20.10000      1.0000000e-05  2.0100000e+01     hk      1.0000      0.0000   1
hk_124            log  factor    20.10000      1.0000000e-05  2.0100000e+01     hk      1.0000      0.0000   1
hk_125          fixed  factor    999999.0      0.0000000e+00       99999999     hk      1.0000      0.0000   1
hk_126          fixed  factor    999999.0      0.0000000e+00       99999999     hk      1.0000      0.0000   1
hk_127          fixed  factor    999999.0      0.0000000e+00       99999999     hk      1.0000      0.0000   1
hk_128          fixed  factor    999999.0      0.0000000e+00       99999999     hk      1.0000      0.0000   1
hk_129          fixed  factor    999999.0      0.0000000e+00       99999999     hk      1.0000      0.0000   1
hk_130          fixed  factor    999999.0      0.0000000e+00       99999999     hk      1.0000      0.0000   1
hk_131          fixed  factor    999999.0      0.0000000e+00       99999999     hk      1.0000      0.0000   1
hk_132          fixed  factor    999999.0      0.0000000e+00       99999999     hk      1.0000      0.0000   1
hk_133          fixed  factor    999999.0      0.0000000e+00       99999999     hk      1.0000      0.0000   1
hk_134          fixed  factor    999999.0      0.0000000e+00       99999999     hk      1.0000      0.0000   1
hk_135          fixed  factor    999999.0      0.0000000e+00       99999999     hk      1.0000      0.0000   1
hk_136            log  factor    18.24293      1.0000000e-05  2.0100000e+01     hk      1.0000      0.0000   1
hk_137            log  factor    18.49516      1.0000000e-05  2.0100000e+01     hk      1.0000      0.0000   1
hk_138            log  factor    16.43314      1.0000000e-05  2.0100000e+01     hk      1.0000      0.0000   1
hk_139            log  factor    19.52810      1.0000000e-05  2.0100000e+01     hk      1.0000      0.0000   1
hk_140            log  factor    20.10000      1.0000000e-05  2.0100000e+01     hk      1.0000      0.0000   1
hk_141            log  factor    20.10000      1.0000000e-05  2.0100000e+01     hk      1.0000      0.0000   1
hk_142            log  factor    20.02983      1.0000000e-05  2.0100000e+01     hk      1.0000      0.0000   1
hk_143            log  factor    19.28119      1.0000000e-05  2.0100000e+01     hk      1.0000      0.0000   1
hk_144            log  factor    17.39410      1.0000000e-05  2.0100000e+01     hk      1.0000      0.0000   1
hk_145            log  factor    20.10000      1.0000000e-05  2.0100000e+01     hk      1.0000      0.0000   1
hk_146            log  factor    20.10000      1.0000000e-05  2.0100000e+01     hk      1.0000      0.0000   1
hk_147            log  factor    20.10000      1.0000000e-05  2.0100000e+01     hk      1.0000      0.0000   1
hk_148            log  factor    14.14658      1.0000000e-05  2.0100000e+01     hk      1.0000      0.0000   1
hk_149          fixed  factor    999999.0      0.0000000e+00       99999999     hk      1.0000      0.0000   1
hk_150          fixed  factor    999999.0      0.0000000e+00       99999999     hk      1.0000      0.0000   1
hk_151          fixed  factor    999999.0      0.0000000e+00       99999999     hk      1.0000      0.0000   1
hk_152          fixed  factor    999999.0      0.0000000e+00       99999999     hk      1.0000      0.0000   1
hk_153          fixed  factor    999999.0      0.0000000e+00       99999999     hk      1.0000      0.0000   1
hk_154          fixed  factor    999999.0      0.0000000e+00       99999999     hk      1.0000      0.0000   1
hk_155          fixed  factor    999999.0      0.0000000e+00       99999999     hk      1.0000      0.0000   1
hk_156          fixed  factor    999999.0      0.0000000e+00       99999999     hk      1.0000      0.0000   1
hk_157          fixed  factor    999999.0      0.0000000e+00       99999999     hk      1.0000      0.0000   1
hk_158          fixed  factor    999999.0      0.0000000e+00       99999999     hk      1.0000      0.0000   1
hk_159            log  factor    18.80084      1.0000000e-05  2.0100000e+01     hk      1.0000      0.0000   1
hk_160            log  factor    20.10000      1.0000000e-05  2.0100000e+01     hk      1.0000      0.0000   1
hk_161            log  factor    17.26373      1.0000000e-05  2.0100000e+01     hk      1.0000      0.0000   1
hk_162            log  factor    20.10000      1.0000000e-05  2.0100000e+01     hk      1.0000      0.0000   1
hk_163            log  factor    19.95790      1.0000000e-05  2.0100000e+01     hk      1.0000      0.0000   1
hk_164            log  factor    20.10000      1.0000000e-05  2.0100000e+01     hk      1.0000      0.0000   1
hk_165            log  factor    17.70145      1.0000000e-05  2.0100000e+01     hk      1.0000      0.0000   1
hk_166            log  factor    17.41064      1.0000000e-05  2.0100000e+01     hk      1.0000      0.0000   1
hk_167            log  factor    15.84965      1.0000000e-05  2.0100000e+01     hk      1.0000      0.0000   1
hk_168            log  factor    17.62553      1.0000000e-05  2.0100000e+01     hk      1.0000      0.0000   1
hk_169            log  factor    20.10000      1.0000000e-05  2.0100000e+01     hk      1.0000      0.0000   1
hk_170            log  factor    20.10000      1.0000000e-05  2.0100000e+01     hk      1.0000      0.0000   1
hk_171            log  factor    19.98867      1.0000000e-05  2.0100000e+01     hk      1.0000      0.0000   1
hk_172          fixed  factor    999999.0      0.0000000e+00       99999999     hk      1.0000      0.0000   1
hk_173          fixed  factor    999999.0      0.0000000e+00       99999999     hk      1.0000      0.0000   1
hk_174          fixed  factor    999999.0      0.0000000e+00       99999999     hk      1.0000      0.0000   1
hk_175          fixed  factor    999999.0      0.0000000e+00       99999999     hk      1.0000      0.0000   1
hk_176          fixed  factor    999999.0      0.0000000e+00       99999999     hk      1.0000      0.0000   1
hk_177          fixed  factor    999999.0      0.0000000e+00       99999999     hk      1.0000      0.0000   1
hk_178          fixed  factor    999999.0      0.0000000e+00       99999999     hk      1.0000      0.0000   1
hk_179          fixed  factor    999999.0      0.0000000e+00       99999999     hk      1.0000      0.0000   1
hk_180          fixed  factor    999999.0      0.0000000e+00       99999999     hk      1.0000      0.0000   1
hk_181          fixed  factor    999999.0      0.0000000e+00       99999999     hk      1.0000      0.0000   1
hk_182            log  factor    18.97439      1.0000000e-05  2.0100000e+01     hk      1.0000      0.0000   1
hk_183            log  factor    17.47778      1.0000000e-05  2.0100000e+01     hk      1.0000      0.0000   1
hk_184            log  factor    15.67718      1.0000000e-05  2.0100000e+01     hk      1.0000      0.0000   1
hk_185            log  factor    20.10000      1.0000000e-05  2.0100000e+01     hk      1.0000      0.0000   1
hk_186            log  factor    20.10000      1.0000000e-05  2.0100000e+01     hk      1.0000      0.0000   1
hk_187            log  factor    20.10000      1.0000000e-05  2.0100000e+01     hk      1.0000      0.0000   1
hk_188            log  factor    17.82875      1.0000000e-05  2.0100000e+01     hk      1.0000      0.0000   1
hk_189            log  factor    18.24403      1.0000000e-05  2.0100000e+01     hk      1.0000      0.0000   1
hk_190            log  factor    20.10000      1.0000000e-05  2.0100000e+01     hk      1.0000      0.0000   1
hk_191            log  factor    15.48163      1.0000000e-05  2.0100000e+01     hk      1.0000      0.0000   1
hk_192            log  factor    20.10000      1.0000000e-05  2.0100000e+01     hk      1.0000      0.0000   1
hk_193            log  factor    20.10000      1.0000000e-05  2.0100000e+01     hk      1.0000      0.0000   1
hk_194            log  factor    18.21704      1.0000000e-05  2.0100000e+01     hk      1.0000      0.0000   1
hk_195          fixed  factor    999999.0      0.0000000e+00       99999999     hk      1.0000      0.0000   1
hk_196          fixed  factor    999999.0      0.0000000e+00       99999999     hk      1.0000      0.0000   1
hk_197          fixed  factor    999999.0      0.0000000e+00       99999999     hk      1.0000      0.0000   1
hk_198          fixed  factor    999999.0      0.0000000e+00       99999999     hk      1.0000      0.0000   1
hk_199          fixed  factor    999999.0      0.0000000e+00       99999999     hk      1.0000      0.0000   1
hk_200          fixed  factor    999999.0      0.0000000e+00       99999999     hk      1.0000      0.0000   1
hk_201          fixed  factor    999999.0      0.0000000e+00       99999999     hk      1.0000      0.0000   1
hk_202          fixed  factor    999999.0      0.0000000e+00       99999999     hk      1.0000      0.0000   1
hk_203          fixed  factor    999999.0      0.0000000e+00       99999999     hk      1.0000      0.0000   1
hk_204            log  factor    18.49827      1.0000000e-05  2.0100000e+01     hk      1.0000      0.0000   1
hk_205            log  factor    20.10000      1.0000000e-05  2.0100000e+01     hk      1.0000      0.0000   1
hk_206            log  factor    18.26441      1.0000000e-05  2.0100000e+01     hk      1.0000      0.0000   1
hk_207            log  factor    20.10000      1.0000000e-05  2.0100000e+01     hk      1.0000      0.0000   1
hk_208            log  factor    20.10000      1.0000000e-05  2.0100000e+01     hk      1.0000      0.0000   1
hk_209            log  factor    20.10000      1.0000000e-05  2.0100000e+01     hk      1.0000      0.0000   1
hk_210            log  factor    20.10000      1.0000000e-05  2.0100000e+01     hk      1.0000      0.0000   1
hk_211            log  factor    17.59406      1.0000000e-05  2.0100000e+01     hk      1.0000      0.0000   1
hk_212            log  factor    20.10000      1.0000000e-05  2.0100000e+01     hk      1.0000      0.0000   1
hk_213            log  factor    15.16160      1.0000000e-05  2.0100000e+01     hk      1.0000      0.0000   1
hk_214            log  factor    20.10000      1.0000000e-05  2.0100000e+01     hk      1.0000      0.0000   1
hk_215            log  factor    18.72878      1.0000000e-05  2.0100000e+01     hk      1.0000      0.0000   1
hk_216            log  factor    20.10000      1.0000000e-05  2.0100000e+01     hk      1.0000      0.0000   1
hk_217            log  factor    20.10000      1.0000000e-05  2.0100000e+01     hk      1.0000      0.0000   1
hk_218          fixed  factor    999999.0      0.0000000e+00       99999999     hk      1.0000      0.0000   1
hk_219          fixed  factor    999999.0      0.0000000e+00       99999999     hk      1.0000      0.0000   1
hk_220          fixed  factor    999999.0      0.0000000e+00       99999999     hk      1.0000      0.0000   1
hk_221          fixed  factor    999999.0      0.0000000e+00       99999999     hk      1.0000      0.0000   1
hk_222          fixed  factor    999999.0      0.0000000e+00       99999999     hk      1.0000      0.0000   1
hk_223          fixed  factor    999999.0      0.0000000e+00       99999999     hk      1.0000      0.0000   1
hk_224          fixed  factor    999999.0      0.0000000e+00       99999999     hk      1.0000      0.0000   1
hk_225          fixed  factor    999999.0      0.0000000e+00       99999999     hk      1.0000      0.0000   1
hk_226          fixed  factor    999999.0      0.0000000e+00       99999999     hk      1.0000      0.0000   1
hk_227            log  factor    20.10000      1.0000000e-05  2.0100000e+01     hk      1.0000      0.0000   1
hk_228            log  factor    18.49458      1.0000000e-05  2.0100000e+01     hk      1.0000      0.0000   1
hk_229            log  factor    20.10000      1.0000000e-05  2.0100000e+01     hk      1.0000      0.0000   1
hk_230            log  factor    16.79276      1.0000000e-05  2.0100000e+01     hk      1.0000      0.0000   1
hk_231            log  factor    19.01492      1.0000000e-05  2.0100000e+01     hk      1.0000      0.0000   1
hk_232            log  factor    20.10000      1.0000000e-05  2.0100000e+01     hk      1.0000      0.0000   1
hk_233            log  factor    20.10000      1.0000000e-05  2.0100000e+01     hk      1.0000      0.0000   1
hk_234            log  factor    18.99191      1.0000000e-05  2.0100000e+01     hk      1.0000      0.0000   1
hk_235            log  factor    17.05535      1.0000000e-05  2.0100000e+01     hk      1.0000      0.0000   1
hk_236            log  factor    13.61301      1.0000000e-05  2.0100000e+01     hk      1.0000      0.0000   1
hk_237            log  factor    15.15806      1.0000000e-05  2.0100000e+01     hk      1.0000      0.0000   1
hk_238            log  factor    14.93907      1.0000000e-05  2.0100000e+01     hk      1.0000      0.0000   1
hk_239            log  factor    20.10000      1.0000000e-05  2.0100000e+01     hk      1.0000      0.0000   1
hk_240            log  factor    20.10000      1.0000000e-05  2.0100000e+01     hk      1.0000      0.0000   1
hk_241            log  factor    20.10000      1.0000000e-05  2.0100000e+01     hk      1.0000      0.0000   1
hk_242          fixed  factor    999999.0      0.0000000e+00       99999999     hk      1.0000      0.0000   1
hk_243          fixed  factor    999999.0      0.0000000e+00       99999999     hk      1.0000      0.0000   1
hk_244          fixed  factor    999999.0      0.0000000e+00       99999999     hk      1.0000      0.0000   1
hk_245          fixed  factor    999999.0      0.0000000e+00       99999999     hk      1.0000      0.0000   1
hk_246          fixed  factor    999999.0      0.0000000e+00       99999999     hk      1.0000      0.0000   1
hk_247          fixed  factor    999999.0      0.0000000e+00       99999999     hk      1.0000      0.0000   1
hk_248          fixed  factor    999999.0      0.0000000e+00       99999999     hk      1.0000      0.0000   1
hk_249          fixed  factor    999999.0      0.0000000e+00       99999999     hk      1.0000      0.0000   1
hk_250            log  factor    18.60031      1.0000000e-05  2.0100000e+01     hk      1.0000      0.0000   1
hk_251            log  factor    20.10000      1.0000000e-05  2.0100000e+01     hk      1.0000      0.0000   1
hk_252            log  factor    20.10000      1.0000000e-05  2.0100000e+01     hk      1.0000      0.0000   1
hk_253            log  factor    17.80834      1.0000000e-05  2.0100000e+01     hk      1.0000      0.0000   1
hk_254            log  factor    20.10000      1.0000000e-05  2.0100000e+01     hk      1.0000      0.0000   1
hk_255            log  factor    17.43780      1.0000000e-05  2.0100000e+01     hk      1.0000      0.0000   1
hk_256            log  factor    20.10000      1.0000000e-05  2.0100000e+01     hk      1.0000      0.0000   1
hk_257            log  factor    20.10000      1.0000000e-05  2.0100000e+01     hk      1.0000      0.0000   1
hk_258            log  factor    17.52022      1.0000000e-05  2.0100000e+01     hk      1.0000      0.0000   1
hk_259            log  factor    20.10000      1.0000000e-05  2.0100000e+01     hk      1.0000      0.0000   1
hk_260            log  factor    17.57230      1.0000000e-05  2.0100000e+01     hk      1.0000      0.0000   1
hk_261            log  factor    20.10000      1.0000000e-05  2.0100000e+01     hk      1.0000      0.0000   1
hk_262            log  factor    17.63569      1.0000000e-05  2.0100000e+01     hk      1.0000      0.0000   1