pcf
* control data
restart estimation
2 95 2 0 3
1  1  double  point  1  0  0
1.000000e+001  2.000000e+000  3.000000e-001  1.000000e-002  10
1.000000e+001  1.000000e+001  1.000000e-003
1.000000e-001 noaui
0  1.000000e-002  3  3  1.000000e-002  3 **** CONTROLS OPTIMIZATION: SEE PEST MANUAL ****
1  1  1
* parameter groups
Kh     relative   1.000000e-002  0.000000e+000  switch  2.000000e+000  parabolic
Rch    relative   1.000000e-002  0.000000e+000  switch  2.000000e+000  parabolic
* parameter data
cond________	log   factor   41.78502	 4.178502	 417.8502	Kh     1.0      0.0 1
rech________	none  factor   .00194	 .000194	 .0194	Rch    -1.0     0.0 1
* observation groups
Head
Streamflow
Lakestage
* observation data
AA644 1587	1.000000 Head
AA646 1593	1.000000 Head
AG220 1588	1.000000 Head
AJ130 1595	1.000000 Head
AU898 1575	1.000000 Head
AW561 1621	1.000000 Head
AW920 1590	1.000000 Head
AW949 1602	1.000000 Head
BG532 1582	1.000000 Head
CH127 1617	1.000000 Head
CI747 1583	1.000000 Head
CY937 1590	1.000000 Head
DE476 1573	1.000000 Head
DE485 1625	1.000000 Head
DE864 1594	1.000000 Head
EM407 1606	1.000000 Head
FV093 1584	1.000000 Head
GD509 1600	1.000000 Head
GG261 1601	1.000000 Head
GG276 1596	1.000000 Head
GG293 1597	1.000000 Head
GG298 1574	1.000000 Head
GS692 1583	1.000000 Head
HK141 1588	1.000000 Head
HQ801 1611	1.000000 Head
HQ808 1622	1.000000 Head
HX952 1614	1.000000 Head
HX955 1593	1.000000 Head
HX970 1602	1.000000 Head
HX977 1595	1.000000 Head
HX985 1605	1.000000 Head
HX988 1591	1.000000 Head
HX997 1584	1.000000 Head
HY055 1580	1.000000 Head
IB824 1600	1.000000 Head
IB829 1607	1.000000 Head
IB867 1590	1.000000 Head
IC138 1590	1.000000 Head
IC617 1602	1.000000 Head
IH403 1590	1.000000 Head
KW100 1604	1.000000 Head
KW137 1593	1.000000 Head
LB201 1579	1.000000 Head
LC636 1583	1.000000 Head
LC661 1612	1.000000 Head
MA497 1584	1.000000 Head
MB985 1587	1.000000 Head
MK212 1592	1.000000 Head
MN102 1601	1.000000 Head
MN112 1601	1.000000 Head
MR175 1592	1.000000 Head
MV942 1587	1.000000 Head
NE353 1592	1.000000 Head
NS562 1596	1.000000 Head
NS675 1588	1.000000 Head
NS693 1606	1.000000 Head
NS697 1593	1.000000 Head
NU542 1590	1.000000 Head
NY103 1610	1.000000 Head
OC214 1596	1.000000 Head
OC242 1597	1.000000 Head
OC269 1579	1.000000 Head
OC282 1591	1.000000 Head
ON137 1586	1.000000 Head
OO519 1575	1.000000 Head
OU724 1591	1.000000 Head
QK953 1591	1.000000 Head
QO442 1592	1.000000 Head
RB235 1584	1.000000 Head
RB278 1617	1.000000 Head
RC905 1581	1.000000 Head
RC926 1590	1.000000 Head
RC986 1577	1.000000 Head
RC992 1608	1.000000 Head
RH601 1588	1.000000 Head
SG232 1583	1.000000 Head
SL558 1583	1.000000 Head
ST325 1604	1.000000 Head
TB316 1597	1.000000 Head
TB325 1592	1.000000 Head
TC898 1596	1.000000 Head
avm 1123200	0.000400 Streamflow
BigArborVout 383616	0.000010 Streamflow
LArborvout 768960	0.000200 Streamflow
Mincoqua_inlet 1123200	0.000400 Streamflow
LinkCr_LArborinlet 608256	0.000300 Streamflow
lemma_ck 228096	0.000010 Streamflow
johnson_ck 440640	0.000300 Streamflow
minocqua 1583.84	10.000000 Lakestage
tomahawk 1583.93	10.000000 Lakestage
BigArbovVitae 1608.86	10.000000 Lakestage
LArbov 1602.65	10.000000 Lakestage
Carrol 1596.51	10.000000 Lakestage
brandy 1591.73	10.000000 Lakestage
johnson_lk 1587.43	10.000000 Lakestage
* model command line
G-PEST.bat
* model input/output
min6_lak.tpl min6_lak.DAT
min6_lak.ins min6_lak.XTR
