pcf
* control data
restart estimation
74  23908  7  0  19
9  8  single  point  1  0  0
20.000       -3.0000      0.3  0.03  12     999  LAMFORGIVE
5.000000e+000  5.000000e+000  1.000000e-003
1.000000e-001 1 noaui
0  1.000000e-002  3  3  1.000000e-002  3
1    1    1   1  nojcosaveitn reisaveitn parsaveitn
* singular value decomposition
  1
  72  5.000000e-007
  1
* parameter groups
Kx           relative   1.000000e-002  0.000000e+000  always_3  2.000000e+000  parabolic
Kz           relative   1.000000e-002  0.000000e+000  always_3  2.000000e+000  parabolic
rch_mult     relative   1.000000e-002  0.000000e+000  always_3  2.000000e+000  parabolic
lkbed_mult   relative   1.000000e-002  0.000000e+000  always_3  2.000000e+000  parabolic
streambed_Kv relative   1.000000e-002  0.000000e+000  always_3  2.000000e+000  parabolic
frac_mult    relative   1.000000e-002  0.000000e+000  always_3  2.000000e+000  parabolic
UZF          relative   1.000000e-002  0.000000e+000  switch  2.000000e+000  parabolic
* parameter data
surfdep     log    factor   1.00000        1.0000e-03  1.0000e+02         uzf   1.0   0.0 1
vks_mult    log    factor   1.00000        1.0000e-03  1.0000e+02         uzf   1.0   0.0 1
bc-eps      fixed  factor    3.300000      3.0000e+00  3.9000e+00         uzf   1.0   0.0 1
thtsmult    fixed  factor    1.000000      1.0000e-03  1.0000e+02         uzf   1.0   0.0 1
lay7kh_ungl log  factor   6.6353053E-02  2.5000e-02  1.0000e+03   frac_mult   1.0   0.0 1
lay7kh_glac log  factor    5.151869      2.5000e-02  1.0000e+03   frac_mult   1.0   0.0 1
lay7kz_ungl log  factor   0.6349139      2.5000e-02  1.0000e+03   frac_mult   1.0   0.0 1
lay7kz_glac log  factor    4.603143      2.5000e-02  1.0000e+03   frac_mult   1.0   0.0 1
lay10khungl log  factor   0.1606150      2.5000e-02  1.0000e+03   frac_mult   1.0   0.0 1
lay10khglac log  factor    9.000000      2.5000e-02  1.0000e+03   frac_mult   1.0   0.0 1
lay10kzungl log  factor   0.9992923      2.5000e-02  1.0000e+03   frac_mult   1.0   0.0 1
lay10kzglac log  factor    1.253047      2.5000e-02  1.0000e+03   frac_mult   1.0   0.0 1
gl_kv       log  factor    30.00000      2.5000e-01  1.0000e+03  streambed_kv 1.0   0.0 1
ungl_kv     log  factor    1.797715      2.5000e-01  1.0000e+03  streambed_kv 1.0   0.0 1
sprg_kv	    log  factor    29.31768      2.5000e-01  1.0000e+03  streambed_kv 1.0   0.0 1
rch_unglaci log  factor    0.800000      2.5000e-01  3.0000e+00    rch_mult   1.0   0.0 1
rch_glacial log  factor    0.800000      2.5000e-01  3.0000e+00    rch_mult   1.0   0.0 1
lkmendot    log  factor   0.9191433      1.0000e-03  1.0000e+02  lkbed_mult   1.0   0.0 1
lkmonona    log  factor    1.639018      1.0000e-03  1.0000e+02  lkbed_mult   1.0   0.0 1
lkwingra    log  factor   0.3558368      1.0000e-03  1.0000e+02  lkbed_mult   1.0   0.0 1
lkwaubes    log  factor   0.9881144      1.0000e-03  1.0000e+02  lkbed_mult   1.0   0.0 1
lkkegons    log  factor   0.9274142      1.0000e-03  1.0000e+02  lkbed_mult   1.0   0.0 1
fishlake    log  factor    3.340980      1.0000e-03  1.0000e+02  lkbed_mult   1.0   0.0 1
crystllk    log  factor    2.877839      1.0000e-03  1.0000e+02  lkbed_mult   1.0   0.0 1
kx2  log  factor    4.885573      1.000000e+000  1.000000e+002    kx   1.0   0.0 1
kx3  log  factor   0.6947223      3.400000e-001  3.400000e+001    kx   1.0   0.0 1
kx4  log  factor    232.4005      5.000000e+000  5.000000e+002    kx   1.0   0.0 1
kx5  log  factor    7.902303      3.600000e-001  3.600000e+001    kx   1.0   0.0 1
kx6  log  factor   0.9693939      1.300000e-001  1.300000e+001    kx   1.0   0.0 1
kx7  log  factor    1.023256      1.000000e-001  1.000000e+001    kx   1.0   0.0 1
kx8  log  factor   5.5235569E-03  5.000000e-004  5.000000e-002    kx   1.0   0.0 1
kx9  log  factor    11.21023      1.200000e+000  1.200000e+002    kx   1.0   0.0 1
kx10  log  factor    13.12754      3.000000e+000  3.000000e+002    kx   1.0   0.0 1
kx11  log  factor    30.00000      3.000000e-001  3.000000e+001    kx   1.0   0.0 1
kx12  log  factor    22.06612      2.000000e+000  2.000000e+002    kx   1.0   0.0 1
kx13  log  factor    4.632308      1.000000e-001  1.000000e+001    kx   1.0   0.0 1
kx14  log  factor    2.024413      5.000000e-001  5.000000e+001    kx   1.0   0.0 1
kx15  log  factor   0.2975888      1.000000e-001  1.000000e+001    kx   1.0   0.0 1
kx16  log  factor    91.66047      3.000000e+000  3.000000e+002    kx   1.0   0.0 1
kx17  log  factor    124.8288      7.000000e+000  7.000000e+002    kx   1.0   0.0 1
kx18  log  factor    4066.514      2.000000e+002  2.000000e+004    kx   1.0   0.0 1
kx19  log  factor    1378.295      2.000000e+002  2.000000e+004    kx   1.0   0.0 1
kx20  log  factor    1344.681      2.000000e+002  2.000000e+004    kx   1.0   0.0 1
kx21  log  factor    6.202524      2.000000e+000  2.000000e+003    kx   1.0   0.0 1
kx22  log  factor    2215.039      2.000000e+002  2.000000e+004    kx   1.0   0.0 1
kx23  log  factor    782.3327      2.000000e+002  2.000000e+004    kx   1.0   0.0 1
kx24  log  factor    3990.597      2.000000e+002  2.000000e+004    kx   1.0   0.0 1
kx25  log  factor    8126.374      2.000000e+002  2.000000e+004    kx   1.0   0.0 1
kx26  log  factor    8.054402      2.000000e+000  2.000000e+003    kx   1.0   0.0 1
kz2  log  factor   0.5097736      1.000000e-003  1.000000e+001    kz   1.0   0.0 1
kz3  log  factor   4.5821277E-03  5.000000e-004  5.000000e+000    kz   1.0   0.0 1
kz4  log  factor   2.0997302E-02  5.000000e-004  5.000000e+000    kz   1.0   0.0 1
kz5  log  factor   0.2192786      5.000000e-004  5.000000e+000    kz   1.0   0.0 1
kz6  log  factor   0.2009457      5.000000e-004  5.000000e+000    kz   1.0   0.0 1
kz7  log  factor   1.4397003E-02  1.000000e-004  1.000000e+000    kz   1.0   0.0 1
kz8  log  factor   4.8035848E-04  5.000000e-007  5.000000e-003    kz   1.0   0.0 1
kz9  log  factor   6.0631569E-03  1.000000e-004  1.000000e+000    kz   1.0   0.0 1
kz10  log  factor    17.88465      3.000000e-002  3.000000e+002    kz   1.0   0.0 1
kz11  log  factor    12.42109      3.000000e-003  3.000000e+001    kz   1.0   0.0 1
kz12  log  factor    14.53451      2.000000e-002  2.000000e+002    kz   1.0   0.0 1
kz13  log  factor    1.000000      1.000000e-004  1.000000e+000    kz   1.0   0.0 1
kz14  log  factor   2.9290062E-02  5.000000e-003  5.000000e+001    kz   1.0   0.0 1
kz15  log  factor    1.415297      1.000000e-003  1.000000e+001    kz   1.0   0.0 1
kz16  log  factor    19.15522      3.000000e-002  3.000000e+002    kz   1.0   0.0 1
kz17  log  factor    90.62183      7.000000e-002  7.000000e+002    kz   1.0   0.0 1
kz18  log  factor    5353.245      2.000000e+000  2.000000e+004    kz   1.0   0.0 1
kz19  log  factor    842.9761      2.000000e+000  2.000000e+004    kz   1.0   0.0 1
kz20  log  factor    2530.479      2.000000e+000  2.000000e+004    kz   1.0   0.0 1
kz21  log  factor    1475.346      2.000000e+000  2.000000e+004    kz   1.0   0.0 1
kz22  log  factor    1937.816      2.000000e+000  2.000000e+004    kz   1.0   0.0 1
kz23  log  factor    1456.734      2.000000e+000  2.000000e+004    kz   1.0   0.0 1
kz24  log  factor    936.3791      2.000000e+000  2.000000e+004    kz   1.0   0.0 1
kz25  log  factor    5228.958      2.000000e+000  2.000000e+004    kz   1.0   0.0 1
kz26  log  factor    2481.383      2.000000e+000  2.000000e+004    kz   1.0   0.0 1
* observation groups
stat
Lake1
Lake2
springs
bh_flow
Head1
Head2
Head4
Head11
Head12
Head13
Head14
Head15
Head16
Head17
Head18
Flux
Flux1
Flux2
* observation data
mf_massbalance          0.0000         0     stat
mf_runtime_min          7.0000         0     stat
nwt_iter 	        100.00	       0     stat
knt_bad_pct               0.00         0     stat
pct_subdom_lost           0.00         0     stat
pct_headw_dry             0.00         0     stat
pct_nonheadw_dry          0.00         0     stat
non-zero_sprgs		 18.00         0     stat
obs/simul_sprfl           1.00	       0     stat
lk_mendota              849.48       150     Lake1
lk_monona               844.63       150     Lake1
lk_wingra               848.22       150     Lake1
lk_waubesa              844.51       150     Lake1
lk_kegonsa              843.15       150     Lake1
fish_lk                 861.37       150     Lake2
crystal_lk              871.61       150     Lake2
Englehart             -13737.6     0.003     springs
Syene                 -55728.0     0.003     springs
Big_Nine              -34819.2     0.003     springs
Nursery	              -98928.0     0.003     springs
Duck_Pond             -81302.4     0.003     springs
Council_Wingra        -77068.8     0.003     springs
Garfoot_obs           -19612.8     0.003     springs
Garfoot_Braun        -100000.0     0.003     springs
Big_Donald           -660000.0     0.003     springs
Small_Donald         -130000.0     0.003     springs
Harbor_Mendota         -2073.6     0.003     springs
Fitz                 -210000.0     0.003     springs
CTH                  -440000.0     0.003     springs
Nevin                -290000.0     0.003     springs
Zeier                 -33955.2     0.003     springs
Big_Wingra            -22291.2     0.003     springs
Pheasant_Branch      -300000.0     0.003     springs
Token                -670000.0     0.003     springs
Mendota_outlt          7983360	       0     flux
Monona_outlt	      11128320	       0     flux
Waubesa_outlt	      11128320	       0     flux
Kegonsa_outlt	      19690000	  .00001     flux
XX6008_lay6          -0.158400	    2500     bh_flow
XX6008_lay7           0.000000	    2500     bh_flow
XX6008_lay8           0.028800	    2500     bh_flow
XX6008_lay9           0.000000	    2500     bh_flow
XX6008_lay10          0.129600	    2500     bh_flow
XX1436_lay6           0.151200	    2500     bh_flow
XX1436_lay7          -0.108000	    2500     bh_flow
XX1436_lay8          -0.043200	    2500     bh_flow
XX1495_lay7          -0.018720	    2500     bh_flow
XX1495_lay8          -0.067680	    2500     bh_flow
XX1495_lay9           0.000000	    2500     bh_flow
XX1495_lay10          0.086400	    2500     bh_flow
XX1371_lay7          -0.012960	    2500     bh_flow
XX1371_lay8           0.000000	    2500     bh_flow
XX1371_lay9           0.000000	    2500     bh_flow
XX1371_lay10          0.012960	    2500     bh_flow
XX6049_lay8          -0.057600	    2500     bh_flow
XX6049_lay9           0.000000	    2500     bh_flow
XX6049_lay10          0.057600	    2500     bh_flow
XX1440_lay7           0.005760	    2500     bh_flow
XX1440_lay8          -0.027360	    2500     bh_flow
XX1440_lay9           0.000000	    2500     bh_flow
XX1440_lay10          0.021600	    2500     bh_flow
XX1466_lay6          -0.000360	    2500     bh_flow
XX1466_lay7           0.000360	    2500     bh_flow
XX6045_lay6          -0.120960	    2500     bh_flow
XX6045_lay7          -0.282240	    2500     bh_flow
XX6045_lay8           0.403200	    2500     bh_flow
XX6046_lay6          -0.000965	    2500     bh_flow
XX6046_lay7          -0.000965	    2500     bh_flow
XX6046_lay8           0.001930	    2500     bh_flow
o1                    0.6500          15     Head2
o2                    1.1000          15     Head2
o3                    37.0000         15     Head2
o4                    1.0000          15     Head2
o5                    0.3000          15     Head2
o6                    0.1000          15     Head2
o7                    1.4000          15     Head2
o8                    0.2000          15     Head2
o9                    0.2000          15     Head2
o10                    9.5100         15     Head2
o11                    40.0000        15     Head2
o12                    44.6200        15     Head2
o13                    21.3000        15     Head2
o14                    0.0000         15     Head2
o15                    0.2000         15     Head2
o16                    -2.2000        15     Head2
o17                    0.8000         15     Head2
o18                    1.1000         15     Head2
o19                    -0.7000        15     Head2
o20                    -0.1000        15     Head2
o21                    -2.5000        15     Head2
o22                    -0.2000        15     Head2
o23                    0.5000         15     Head2
o24                    0.4700         15     Head2
o25                    1.9100         15     Head2
o26                    2.2600         15     Head2
o27                    4.3000         15     Head2
o28                    10.2100        15     Head2
o29                    -4.1900        15     Head2
o30                    0.3700         15     Head2
o31                    8.1600         15     Head2
o32                    -0.0400        15     Head2
o33                    6.9600         15     Head2
o34                    8.5400         15     Head2
o35                    13.7600        15     Head2
o36                    0.0500         15     Head2
o37                    3.8600         15     Head2
o38                    0.9200         15     Head2
o39                    0.7700         15     Head2
o40                    2.0100         15     Head2
o41                    -5.1600        15     Head2
o42                    1.3800         15     Head2
o43                    0.1800         15     Head2
o44                    2.3300         15     Head2
o45                    0.0900         15     Head2
o46                    7.6500         15     Head2
o47                    10.3600        15     Head2
o48                    2.4500         15     Head2
o49                    1.7100         15     Head2
o50                    2.2100         15     Head2
o51                    -0.2000        15     Head2
o52                    6.5500         15     Head2
o53                    6.2400         15     Head2
o54                    5.5800         15     Head2
o55                    7.0300         15     Head2
o56                    1.6200         15     Head2
o57                    2.1400         15     Head2
o58                    -0.5000        15     Head2
o59                    2.0000         15     Head2
o60                    1.5000         15     Head2
o61                    21.0000        15     Head2
o62                    13.0000        15     Head2
o63                    -3.5100        15     Head2
o64                    -0.1800        15     Head2
o65                    -0.1800        15     Head2
o66                    2.6600         15     Head2
o67                    -0.3497        15     Head2
o68                    0.0602         15     Head2
o69                    -0.3457        15     Head2
o70                    3.7833         15     Head2
o71                    7.9377         15     Head2
o72                    0.7848         15     Head2
o73                    50.2371        15     Head2
o74                    44.9936        15     Head2
o75                    832.0780       15     Head4
o76                    869.0879       15     Head4
o77                    728.9405       15     Head4
o78                    842.6383       15     Head4
o79                    794.0780       15     Head4
o80                    829.2438       15     Head4
o81                    892.0900       15     Head4
o82                    928.5450       15     Head4
o83                    919.2355       15     Head4
o84                    962.6889       15     Head4
o85                    849.6413       15     Head4
o86                    912.5203       15     Head4
o87                    864.2775       15     Head4
o88                    840.7818       15     Head4
o89                    819.3086       15     Head4
o90                    853.8567       15     Head4
o91                    867.0400       15     Head4
o92                    867.4733       15     Head4
o93                    867.3933       15     Head4
o94                    861.4100       15     Head11
o95                    849.8188       15     Head11
o96                    850.5384       15     Head11
o97                    845.3002       15     Head11
o98                    848.0000       15     Head11
o99                    845.0064       15     Head11
o100                    844.8986      15     Head11
o101                    839.1854      15     Head11
o102                    843.2288      15     Head11
o103                    871.0100      15     Head11
o104                    820.2000       5     Head1
o105                    819.4000       5     Head1
o106                    883.9000       5     Head1
o107                    792.3500       5     Head1
o108                    803.5000       5     Head1
o109                    914.2000       5     Head1
o110                    818.6000       5     Head1
o111                    850.8000       5     Head1
o112                    861.0900       5     Head1
o113                    828.0000       5     Head1
o114                    869.6000       5     Head1
o115                    901.2000       5     Head1
o116                    873.8000       5     Head1
o117                    830.4700       5     Head1
o118                    859.3800       5     Head1
o119                    862.5000       5     Head1
o120                    947.9000       5     Head1
o121                    867.5000       5     Head1
o122                    923.1000       5     Head1
o123                    905.2000       5     Head1
o124                    837.6000       5     Head1
o125                    831.7300       5     Head1
o126                    843.0500       5     Head1
o127                    831.2000       5     Head1
o128                    823.9500       5     Head1
o129                    904.5000       5     Head1
o130                    894.9000       5     Head1
o131                    902.9000       5     Head1
o132                    850.8800       5     Head1
o133                    850.5511       5     Head1
o134                    850.7700       5     Head1
o135                    849.3700       5     Head1
o136                    849.0100       5     Head1
o137                    849.8300       5     Head1
o138                    849.3800       5     Head1
o139                    848.9200       5     Head1
o140                    849.6500       5     Head1
o141                    848.4800       5     Head1
o142                    849.1900       5     Head1
o143                    848.9500       5     Head1
o144                    849.1900       5     Head1
o145                    848.5700       5     Head1
o146                    849.0400       5     Head1
o147                    849.8800       5     Head1
o148                    848.3300       5     Head1
o149                    836.7800       5     Head1
o150                    809.7800       5     Head1
o151                    845.6400       5     Head1
o152                    844.6400       5     Head1
o153                    844.3400       5     Head1
o154                    849.5000       5     Head1
o155                    848.4000       5     Head1
o156                    845.5000       5     Head1
o157                    844.5000       5     Head1
o158                    844.7000       5     Head1
o159                    847.8000       5     Head1
o160                    864.2600       5     Head1
o161                    864.1600       5     Head1
o162                    862.7600       5     Head1
o163                    862.5600       5     Head1
o164                    862.3600       5     Head1
o165                    895.5000       5     Head1
o166                    896.0000       5     Head1
o167                    893.2000       5     Head1
o168                    895.5000       5     Head1
o169                    911.0000       5     Head1
o170                    913.3000       5     Head1
o171                    899.4000       5     Head1
o172                    896.3000       5     Head1
o173                    886.7000       5     Head1
o174                    886.0367       5     Head1
o175                    892.9000       5     Head1
o176                    894.5000       5     Head1
o177                    886.5000       5     Head1
o178                    862.7700       5     Head1
o179                    853.2600       5     Head1
o180                    853.4000       5     Head1
o181                    813.4000       5     Head1
o182                    806.9500       5     Head1
o183                    807.5200       5     Head1
o184                    871.3600       5     Head1
o185                    873.7000       5     Head1
o186                    873.1700       5     Head1
o187                    865.7400       5     Head1
o188                    865.7600       5     Head1
o189                    871.9100       5     Head1
o190                    875.5300       5     Head1
o191                    877.7100       5     Head1
o192                    863.7000       5     Head1
o193                    864.5200       5     Head1
o194                    856.6800       5     Head1
o195                    856.7200       5     Head1
o196                    944.7100       5     Head1
o197                    943.2700       5     Head1
o198                    944.7800       5     Head1
o199                    899.4100       5     Head1
o200                    898.6500       5     Head1
o201                    897.9800       5     Head1
o202                    972.1400       5     Head1
o203                    972.1600       5     Head1
o204                    972.3100       5     Head1
o205                    972.9100       5     Head1
o206                    972.5400       5     Head1
o207                    861.0000       5     Head1
o208                    861.0000       5     Head1
o209                    860.8000       5     Head1
o210                    863.0000       5     Head1
o211                    862.2000       5     Head1
o212                    861.1000       5     Head1
o213                    858.5000       5     Head1
o214                    859.2000       5     Head1
o215                    859.3000       5     Head1
o216                    861.8000       5     Head1
o217                    862.0000       5     Head1
o218                    861.5000       5     Head1
o219                    868.5000       5     Head1
o220                    866.5000       5     Head1
o221                    867.8000       5     Head1
o222                    860.0900       5     Head1
o223                    861.1000       5     Head1
o224                    861.2300       5     Head1
o225                    860.7600       5     Head1
o226                    859.8000       5     Head1
o227                    858.8500       5     Head1
o228                    859.7200       5     Head1
o229                    857.5200       5     Head1
o230                    857.4600       5     Head1
o231                    860.3900       5     Head1
o232                    860.5200       5     Head1
o233                    856.2200       5     Head1
o234                    861.6200       5     Head1
o235                    865.8100       5     Head1
o236                    871.8300       5     Head1
o237                    839.0100       5     Head1
o238                    847.1700       5     Head1
o239                    847.5400       5     Head1
o240                    847.4600       5     Head1
o241                    840.5400       5     Head1
o242                    847.5000       5     Head1
o243                    917.8700       5     Head1
o244                    909.3300       5     Head1
o245                    895.5700       5     Head1
o246                    908.0100       5     Head1
o247                    907.9600       5     Head1
o248                    912.0900       5     Head1
o249                    908.2300       5     Head1
o250                    906.9300       5     Head1
o251                    906.0100       5     Head1
o252                    850.2000       5     Head1
o253                    849.4300       5     Head1
o254                    847.4200       5     Head1
o255                    843.4500       5     Head1
o256                    848.6100       5     Head1
o257                    847.2300       5     Head1
o258                    848.1900       5     Head1
o259                    848.0100       5     Head1
o260                    845.6800       5     Head1
o261                    848.6000       5     Head1
o262                    848.5100       5     Head1
o263                    857.0400       5     Head1
o264                    864.6900       5     Head1
o265                    868.0600       5     Head1
o266                    857.7000       5     Head1
o267                    855.6500       5     Head1
o268                    853.2000       5     Head1
o269                    854.0500       5     Head1
o270                    852.3400       5     Head1
o271                    856.4500       5     Head1
o272                    854.2400       5     Head1
o273                    850.1600       5     Head1
o274                    850.3600       5     Head1
o275                    865.0100       5     Head1
o276                    858.4600       5     Head1
o277                    974.2600       5     Head1
o278                    980.5000       5     Head1
o279                    979.0900       5     Head1
o280                    973.5100       5     Head1
o281                    971.2500       5     Head1
o282                    978.2800       5     Head1
o283                    980.8800       5     Head1
o284                    979.2600       5     Head1
o285                    982.9900       5     Head1
o286                    980.8500       5     Head1
o287                    917.0000       5     Head1
o288                    873.0000       5     Head1
o289                    873.5000       5     Head1
o290                    860.0000       5     Head1
o291                    893.0000       5     Head1
o292                    965.5000       5     Head1
o293                    975.0000       5     Head1
o294                    973.0000       5     Head1
o295                    969.4000       5     Head1
o296                    962.8000       5     Head1
o297                    979.1000       5     Head1
o298                    924.0000       5     Head1
o299                    919.0000       5     Head1
o300                    920.0000       5     Head1
o301                    910.0000       5     Head1
o302                    874.0000       5     Head1
o303                    916.5000       5     Head1
o304                    917.0000       5     Head1
o305                    923.0000       5     Head1
o306                    854.0000       5     Head1
o307                    850.5000       5     Head1
o308                    851.0000       5     Head1
o309                    854.0000       5     Head1
o310                    852.0000       5     Head1
o311                    850.0000       5     Head1
o312                    840.0000       5     Head1
o313                    804.0000       5     Head1
o314                    806.7500       5     Head1
o315                    813.0000       5     Head1
o316                    813.2000       5     Head1
o317                    876.3000       5     Head1
o318                    842.0000       5     Head1
o319                    842.0000       5     Head1
o320                    841.3000       5     Head1
o321                    837.7000       5     Head1
o322                    863.0000       5     Head1
o323                    918.5000       5     Head1
o324                    855.5000       5     Head1
o325                    853.8000       5     Head1
o326                    852.8000       5     Head1
o327                    870.2000       5     Head1
o328                    860.5000       5     Head1
o329                    866.0000       5     Head1
o330                    868.5000       5     Head1
o331                    880.0000       5     Head1
o332                    900.0000       5     Head1
o333                    856.5000       5     Head1
o334                    837.6000       5     Head1
o335                    812.0000       5     Head1
o336                    951.0000       5     Head1
o337                    947.0000       5     Head1
o338                    963.4000       5     Head1
o339                    961.4000       5     Head1
o340                    970.0000       5     Head1
o341                    976.0000       5     Head1
o342                    869.0000       5     Head1
o343                    862.0000       5     Head1
o344                    846.5000       5     Head1
o345                    847.0000       5     Head1
o346                    846.0000       5     Head1
o347                    852.0000       5     Head1
o348                    847.7000       5     Head1
o349                    843.0000       5     Head1
o350                    850.5000       5     Head1
o351                    852.0000       5     Head1
o352                    885.0000       5     Head1
o353                    942.0000       5     Head1
o354                    921.0000       5     Head1
o355                    873.0000       5     Head1
o356                    846.3000       5     Head1
o357                    858.5000       5     Head1
o358                    930.0000       5     Head1
o359                    943.0000       5     Head1