pcf
* control data
restart regularisation
    2260   54004       7    1622     72
      80       3 single  point        1 0 0
  1.00000000e+01 -3.00000000e+00  3.00000000e-01  1.00000000e-02      -7     999 lamforgive derforgive
  1.00000000e+01  1.00000000e+01  1.00000000e-03
  1.00000000e-01 noaui  senreuse
      -1  1.00000000e-02       3       3  1.00000000e-02       3  1.00000000e-04       0
       0 0 0 0 jcosave  noverboserec  jcosaveitn  reisaveitn  parsaveitn
* singular value decomposition
       1
    2165  5.00000000e-07
       0
* parameter groups
 Kx  relative   1.00000000e-02  0.00000000e+00 switch   2.00000000e+00 parabolic 1.0E-04 0.5 smaller
 Stor  relative   1.00000000e-02  0.00000000e+00 switch   2.00000000e+00 parabolic 1.0E-04 0.5 smaller
 Rch  relative   1.00000000e-02  0.00000000e+00 switch   2.00000000e+00 parabolic 1.0E-04 0.5 smaller
 Kp  relative   1.00000000e-02  0.00000000e+00 switch   2.00000000e+00 parabolic 1.0E-04 0.5 smaller
 Kz  relative   1.00000000e-02  0.00000000e+00 switch   2.00000000e+00 parabolic 1.0E-04 0.5 smaller
 Sp  relative   1.00000000e-02  0.00000000e+00 switch   2.00000000e+00 parabolic 1.0E-04 0.5 smaller
 BCCond  relative   1.00000000e-02  0.00000000e+00 switch   2.00000000e+00 parabolic 1.0E-04 0.5 smaller
* parameter data
ghbcond       log        factor    1.409851      1.00e-03    1.00e+03   bccond     3.33054e+08       0       1
ghbcond1      log        factor    1.021751      1.00e-03    1.00e+03   bccond     4.57346e+06       0       1
ghbcond21     log        factor    2.064314      1.00e-03    1.00e+03   bccond     7.52020e+03       0       1
ghbcond22     log        factor   0.9852637      1.00e-03    1.00e+03   bccond     3.30879e+00       0       1
ghbcond23     log        factor    1.017441      1.00e-03    1.00e+03   bccond     5.20000e+03       0       1
ghbcond31     log        factor    1.615334      1.00e-03    1.00e+03   bccond     6.84780e+03       0       1
ghbcond32     log        factor    2.247560      1.00e-03    1.00e+03   bccond     7.09323e+00       0       1
ghbcond33     log        factor   0.6922386      1.00e-03    1.00e+03   bccond     5.22226e+03       0       1
ghbcond41     log        factor    1.301411      1.00e-03    1.00e+03   bccond     6.89264e+03       0       1
ghbcond42     log        factor   0.7035396      1.00e-03    1.00e+03   bccond     4.37320e+00       0       1
ghbcond43     log        factor    1.051574      1.00e-03    1.00e+03   bccond     4.58238e+03       0       1
ghbcond51     log        factor    1.689121      1.00e-03    1.00e+03   bccond     7.75137e+03       0       1
ghbcond52     log        factor   0.9626606      1.00e-03    1.00e+03   bccond     4.91435e+00       0       1
ghbcond53     log        factor    1.109281      1.00e-03    1.00e+03   bccond     3.90714e+03       0       1
ghbcond61     log        factor   0.6336979      1.00e-03    1.00e+03   bccond     9.49413e+03       0       1
ghbcond62     log        factor   0.6037855      1.00e-03    1.00e+03   bccond     6.59092e+00       0       1
ghbcond63     log        factor    1.221137      1.00e-03    1.00e+03   bccond     3.89844e+03       0       1
ghbcond71     log        factor   0.5892032      1.00e-03    1.00e+03   bccond     6.66149e+03       0       1
ghbcond72     log        factor    1.317720      1.00e-03    1.00e+03   bccond     3.77996e+00       0       1
ghbcond73     log        factor    1.300555      1.00e-03    1.00e+03   bccond     6.25447e+03       0       1
ghbcond81     log        factor    1.271709      1.00e-03    1.00e+03   bccond     6.52370e+03       0       1
ghbcond82     log        factor   0.6644385      1.00e-03    1.00e+03   bccond     7.42461e+00       0       1
ghbcond83     log        factor    1.091267      1.00e-03    1.00e+03   bccond     9.77714e+03       0       1
ghbcond91     log        factor    1.508884      1.00e-03    1.00e+03   bccond     6.48616e+03       0       1
ghbcond92     log        factor   0.8206140      1.00e-03    1.00e+03   bccond     7.38077e+00       0       1
ghbcond93     log        factor   0.5207623      1.00e-03    1.00e+03   bccond     5.07682e+03       0       1
ghbcond101    log        factor   0.8464215      1.00e-03    1.00e+03   bccond     6.75689e+03       0       1
ghbcond102    log        factor    1.679552      1.00e-03    1.00e+03   bccond     5.71102e+00       0       1
ghbcond103    log        factor   0.5781934      1.00e-03    1.00e+03   bccond     1.28658e+04       0       1
ghbcond111    log        factor    1.342178      1.00e-03    1.00e+03   bccond     7.02796e+03       0       1
ghbcond112    log        factor   0.7513681      1.00e-03    1.00e+03   bccond     3.46865e+00       0       1
ghbcond113    log        factor   0.9563448      1.00e-03    1.00e+03   bccond     4.76821e+05       0       1
ghbcond121    log        factor    1.350507      1.00e-03    1.00e+03   bccond     5.87690e+03       0       1
ghbcond122    log        factor   0.9499609      1.00e-03    1.00e+03   bccond     6.37795e+00       0       1
ghbcond123    log        factor    1.283323      1.00e-03    1.00e+03   bccond     2.53126e+03       0       1
ghbcond131    log        factor   0.7019367      1.00e-03    1.00e+03   bccond     7.31925e+03       0       1
ghbcond132    log        factor    1.528074      1.00e-03    1.00e+03   bccond     6.45926e+00       0       1
ghbcond133    log        factor   0.8451284      1.00e-03    1.00e+03   bccond     4.18396e-01       0       1
ghbcond141    log        factor    1.848724      1.00e-03    1.00e+03   bccond     1.05922e+04       0       1
ghbcond142    log        factor   0.7740325      1.00e-03    1.00e+03   bccond     5.51212e+00       0       1
ghbcond143    log        factor    2.334481      1.00e-03    1.00e+03   bccond     1.00465e+01       0       1
ghbcond151    log        factor    1.950254      1.00e-03    1.00e+03   bccond     3.99308e+04       0       1
ghbcond152    log        factor    1.315542      1.00e-03    1.00e+03   bccond     5.13491e+00       0       1
ghbcond153    log        factor   0.5160467      1.00e-03    1.00e+03   bccond     4.35962e-02       0       1
ghbcond161    log        factor   0.6698255      1.00e-03    1.00e+03   bccond     6.18545e+05       0       1
ghbcond162    log        factor   0.9525502      1.00e-03    1.00e+03   bccond     8.00296e-01       0       1
ghbcond163    log        factor   0.6935557      1.00e-03    1.00e+03   bccond     1.43859e+03       0       1
ghbcond171    log        factor    1.126201      1.00e-03    1.00e+03   bccond     9.87659e+01       0       1
ghbcond172    log        factor   0.9597614      1.00e-03    1.00e+03   bccond     6.68427e-01       0       1
ghbcond173    log        factor   0.9880205      1.00e-03    1.00e+03   bccond     1.33655e-01       0       1
ghbcond181    log        factor   0.8185139      1.00e-03    1.00e+03   bccond     2.53961e+02       0       1
ghbcond182    log        factor   0.6002660      1.00e-03    1.00e+03   bccond     1.75595e+00       0       1
ghbcond183    log        factor    1.896441      1.00e-03    1.00e+03   bccond     2.13052e-01       0       1
ghbcond191    log        factor   0.9375944      1.00e-03    1.00e+03   bccond     3.58793e+01       0       1
ghbcond192    log        factor   0.7712601      1.00e-03    1.00e+03   bccond     5.64792e-01       0       1
ghbcond193    log        factor    1.470755      1.00e-03    1.00e+03   bccond     1.22699e-01       0       1
rivcond       fixed      factor    1.000000      1.00e-05    1.00e+04   bccond        5.00e+06       0       1
kx23          log        factor   0.7202082      1.00e-08    1.00e+03   kx            9.98e+01       0       1
kx28          log        factor    1.054082      1.00e-08    1.00e+03   kx            9.41e-05       0       1
kx31          log        factor    1.418941      1.00e-08    1.00e+03   kx            8.69e+01       0       1
kx32          log        factor    1.079727      1.00e-08    1.00e+03   kx            5.10e-05       0       1
kx40          fixed      factor    1.000000      1.00e-08    1.00e+03   kx            3.00e+01       0       1
kx41          fixed      factor    1.000000      1.00e-08    1.00e+03   kx            3.00e+01       0       1
kx51          log        factor    1.468792      1.00e-08    1.00e+03   kx            5.00e+02       0       1
kx52          log        factor   0.8442372      1.00e-08    1.00e+03   kx            1.00e-04       0       1
kx53          log        factor   0.7477902      1.00e-08    1.00e+03   kx            2.50e+02       0       1
kx54          log        factor    1.300898      1.00e-08    1.00e+03   kx            1.16e-01       0       1
kx55          log        factor   0.5877112      1.00e-08    1.00e+03   kx            1.44e+02       0       1
kx56          fixed      factor    1.000000      1.00e-08    1.00e+03   kx            1.00e-02       0       1
kx57          log        factor   0.8932301      1.00e-08    1.00e+03   kx            2.00e+01       0       1
kx58          log        factor   0.7980234      1.00e-08    1.00e+03   kx            1.20e-03       0       1
kx59          fixed      factor    1.000000      1.00e-08    1.00e+03   kx            5.00e+00       0       1
kx60          log        factor   0.6922568      1.00e-08    1.00e+03   kx            5.04e-02       0       1
kx61          log        factor   0.7015723      1.00e-08    1.00e+03   kx            1.48e+02       0       1
kx62          log        factor   0.7595441      1.00e-08    1.00e+03   kx            8.59e-05       0       1
kx63          log        factor    1.875245      1.00e-08    1.00e+03   kx            6.87e+01       0       1
kx64          fixed      factor    1.000000      1.00e-08    1.00e+03   kx            1.04e-06       0       1
kx65          fixed      factor    1.000000      1.00e-08    1.00e+03   kx            7.50e+01       0       1
kx66          fixed      factor    1.000000      1.00e-08    1.00e+03   kx            1.00e-06       0       1
kx67          fixed      factor    1.000000      1.00e-08    1.00e+03   kx            1.50e+01       0       1
kx68          log        factor    1.125817      1.00e-08    1.00e+03   kx            1.07e-06       0       1
kx69          log        factor    1.672535      1.00e-08    1.00e+03   kx            1.00e+02       0       1
kx91          fixed      factor    1.000000      1.00e-08    1.00e+03   kx            3.50e+01       0       1
kz23          log        factor   0.7943017      1.00e-08    1.00e+03   kz            1.04e+01       0       1
kz28          log        factor   0.8434664      1.00e-08    1.00e+03   kz            8.41e-07       0       1
kz31          log        factor   0.9693941      1.00e-08    1.00e+03   kz            1.24e+00       0       1
kz32          log        factor   0.6869194      1.00e-08    1.00e+03   kz            3.60e-04       0       1
kz40          fixed      factor    1.000000      1.00e-08    1.00e+03   kz            1.00e+01       0       1
kz41          fixed      factor    1.000000      1.00e-08    1.00e+03   kz            1.00e+01       0       1
kz51          log        factor    2.525932      1.00e-08    1.00e+03   kz            3.00e+01       0       1
kz52          log        factor   0.8591625      1.00e-08    1.00e+03   kz            2.00e-04       0       1
kz53          log        factor   0.8993172      1.00e-08    1.00e+03   kz            2.30e+01       0       1
kz54          log        factor    1.448833      1.00e-08    1.00e+03   kz            1.00e-01       0       1
kz55          log        factor   0.9917295      1.00e-08    1.00e+03   kz            1.59e+01       0       1
kz56          fixed      factor    1.000000      1.00e-08    1.00e+03   kz            1.00e-02       0       1
kz57          log        factor   0.6031596      1.00e-08    1.00e+03   kz            4.00e+00       0       1
kz58          log        factor   0.8696769      1.00e-08    1.00e+03   kz            1.00e-03       0       1
kz59          fixed      factor    1.000000      1.00e-08    1.00e+03   kz            5.00e+00       0       1
kz60          log        factor   0.5642176      1.00e-08    1.00e+03   kz            1.12e-01       0       1
kz61          log        factor    1.479043      1.00e-08    1.00e+03   kz            1.40e+01       0       1
kz62          log        factor   0.6777456      1.00e-08    1.00e+03   kz            7.06e-05       0       1
kz63          log        factor   0.7335095      1.00e-08    1.00e+03   kz            7.93e+00       0       1
kz64          fixed     factor     1.000000      1.00e-08    1.00e+03   kz            1.00e-06       0       1
kz65          fixed     factor     1.000000      1.00e-08    1.00e+03   kz            7.50e+00       0       1
kz66          fixed     factor     1.000000      1.00e-08    1.00e+03   kz            1.00e-06       0       1
kz67          fixed     factor     1.000000      1.00e-08    1.00e+03   kz            2.00e-01       0       1
kz68          log        factor   0.1817446      1.00e-08    1.00e+03   kz            4.88e-05       0       1
kz69          log        factor   0.3376666      1.00e-08    1.00e+03   kz            9.72e+00       0       1
kz91          log        factor    1.000000      1.00e-08    1.00e+03   kz            5.00e-00       0       1
ss23          log        factor    1.657707      1.00e-03    1.00e+04 stor            1.02e-05       0       1
ss28          log        factor   0.7282109      1.00e-03    1.00e+04 stor            1.03e-05       0       1
ss31          log        factor   0.8746789      1.00e-03    1.00e+04 stor            9.81e-07       0       1
ss32          log        factor   0.7625000      1.00e-03    1.00e+04 stor            1.00e-05       0       1
ss40          fixed      factor    1.000000      1.60e-07    1.60e+03 stor            2.00e-01       0       1
ss41          fixed      factor    1.000000      1.60e-07    1.60e+03 stor            1.00e-06       0       1
ss51          log        factor   0.9041502      1.00e-01    1.00e+01 stor            1.01e-06       0       1
ss52          log        factor   0.9748724      1.00e-01    1.00e+01 stor            1.03e-04       0       1
ss53          log        factor   0.9451645      1.00e-01    1.00e+01 stor            9.69e-07       0       1
ss54          log        factor    2.371375      1.00e-01    1.00e+01 stor            1.10e-04       0       1
ss55          log        factor    1.440971      1.00e-01    1.00e+01 stor            1.02e-06       0       1
ss56          fixed      factor    1.000000      1.00e-01    1.00e+01 stor            1.00e-04       0       1
ss57          log        factor    1.027184      1.00e-01    1.00e+01 stor            1.01e-06       0       1
ss58          log        factor    1.099836      1.00e-01    1.00e+01 stor            1.02e-04       0       1
ss59          fixed      factor    1.000000      1.00e-01    1.00e+01 stor            1.00e-06       0       1
ss60          log        factor   0.7657637      1.00e-01    1.00e+01 stor            1.02e-04       0       1
ss61          log        factor    1.081954      1.00e-01    1.00e+01 stor            1.02e-06       0       1
ss62          log        factor    1.574882      1.00e-01    1.00e+01 stor            1.04e-04       0       1
ss63          log        factor   0.9340180      1.00e-01    1.00e+01 stor            1.01e-06       0       1
ss64          fixed      factor    1.000000      1.00e-01    1.00e+01 stor            1.00e-04       0       1
ss65          fixed      factor    1.000000      1.00e-01    1.00e+01 stor            1.00e-06       0       1
ss66          fixed      factor    1.000000      1.00e-01    1.00e+01 stor            1.00e-04       0       1
ss67          fixed      factor    1.000000      1.00e-01    1.00e+01 stor            1.00e-06       0       1
ss68          log        factor   0.8160603      1.00e-01    1.00e+01 stor            1.01e-04       0       1
ss69          log        factor    1.117893      1.00e-01    1.00e+01 stor            1.05e-06       0       1
ss91          log        factor    1.647427      1.00e-01    1.00e+01 stor            9.81e-05       0       1
sy23          fixed      factor    1.000000      2.00e-01    2.00e+00 stor            2.00e-01       0       1
sy28          fixed      factor    1.000000      2.00e-01    2.00e+00 stor            2.00e-01       0       1
sy31          fixed      factor    1.000000      2.00e-01    2.00e+00 stor            2.00e-01       0       1
sy32          fixed      factor    1.000000      2.00e-01    2.00e+00 stor            2.00e-01       0       1
sy40          fixed      factor    1.000000      4.00e-01    4.00e+00 stor            2.00e-01       0       1
sy41          fixed      factor    1.000000      4.00e-01    4.00e+00 stor            2.00e-01       0       1
sy51          fixed      factor    1.000000      2.00e-01    2.00e+00 stor            2.00e-01       0       1
sy52          fixed      factor    1.000000      2.00e-01    2.00e+00 stor            2.00e-01       0       1
sy53          fixed      factor    1.000000      4.00e-01    4.00e+00 stor            2.00e-01       0       1
sy54          fixed      factor    1.000000      2.00e-01    2.00e+00 stor            2.00e-01       0       1
sy55          fixed      factor    1.000000      4.00e-01    4.00e+00 stor            2.00e-01       0       1
sy56          fixed      factor    1.000000      2.00e-01    2.00e+00 stor            2.00e-01       0       1
sy57          fixed      factor    1.000000      4.00e-01    4.00e+00 stor            2.00e-01       0       1
sy58          fixed      factor    1.000000      2.00e-01    2.00e+00 stor            2.00e-01       0       1
sy59          fixed      factor    1.000000      2.00e-01    2.00e+00 stor            2.00e-01       0       1
sy60          fixed      factor    1.000000      2.00e-01    2.00e+00 stor            2.00e-01       0       1
sy61          fixed      factor    1.000000      4.00e-01    4.00e+00 stor            2.00e-01       0       1
sy62          fixed      factor    1.000000      2.00e-01    2.00e+00 stor            2.00e-01       0       1
sy63          fixed      factor    1.000000      4.00e-01    4.00e+00 stor            2.00e-01       0       1
sy64          fixed      factor    1.000000      2.00e-01    2.00e+00 stor            2.00e-01       0       1
sy65          fixed      factor    1.000000      4.00e-01    4.00e+00 stor            2.00e-01       0       1
sy66          fixed      factor    1.000000      2.00e-01    2.00e+00 stor            2.00e-01       0       1
sy67          fixed      factor    1.000000      4.00e-01    4.00e+00 stor            2.00e-01       0       1
sy68          fixed      factor    1.000000      2.00e-01    2.00e+00 stor            2.00e-01       0       1
sy69          fixed      factor    1.000000      4.00e-01    4.00e+00 stor            2.00e-01       0       1
sy91          fixed      factor    1.000000      4.00e-01    4.00e+00 stor            2.60e-01       0       1
kpkx1_1       log        factor   0.6740873      1.00e-08    1.00e+03 kp              3.49e+02       0       1
kpkx1_2       log        factor    1.815417      1.00e-08    1.00e+03 kp              3.45e+02       0       1
kpkx1_3       fixed      factor    1.430000      1.00e-08    1.00e+03 kp              3.44e+02       0       1
kpkx1_4       fixed      factor    1.430000      1.00e-08    1.00e+03 kp              3.50e+02       0       1
kpkx1_5       fixed      factor    1.430000      1.00e-08    1.00e+03 kp              3.46e+02       0       1
kpkx1_6       log        factor    1.008798      1.00e-08    1.00e+03 kp              3.36e+02       0       1
kpkx1_7       log        factor   0.5587207      1.00e-08    1.00e+03 kp              3.49e+02       0       1
kpkx1_8       fixed      factor    1.430000      1.00e-08    1.00e+03 kp              3.54e+02       0       1
kpkx1_9       fixed      factor    3.000000      1.00e-08    1.00e+03 kp              3.50e+02       0       1
kpkx1_10      fixed      factor    3.000000      1.00e-08    1.00e+03 kp              3.50e+02       0       1
kpkx1_11      fixed      factor    1.430000      1.00e-08    1.00e+03 kp              3.43e+02       0       1
kpkx1_12      log        factor    1.316555      1.00e-08    1.00e+03 kp              3.42e+02       0       1
kpkx1_13      log        factor   0.3559954      1.00e-08    1.00e+03 kp              3.46e+02       0       1
kpkx1_14      fixed      factor    1.430000      1.00e-08    1.00e+03 kp              3.50e+02       0       1
kpkx1_15      fixed      factor    1.430000      1.00e-08    1.00e+03 kp              3.50e+02       0       1
kpkx1_16      fixed      factor    1.430000      1.00e-08    1.00e+03 kp              3.50e+02       0       1
kpkx1_17      fixed      factor    1.430000      1.00e-08    1.00e+03 kp              3.50e+02       0       1
kpkx1_18      fixed      factor    3.000000      1.00e-08    1.00e+03 kp              3.50e+02       0       1
kpkx1_19      log        factor    1.000000      1.00e-08    1.00e+03 kp              3.50e+02       0       1
kpkx1_20      fixed      factor    1.430000      1.00e-08    1.00e+03 kp              3.37e+02       0       1
kpkx1_21      log        factor    1.642990      1.00e-08    1.00e+03 kp              1.46e+02       0       1
kpkx1_22      fixed      factor    1.000000      1.00e-08    1.00e+03 kp              1.50e+02       0       1
kpkx1_23      log        factor   1.0000000      1.00e-08    1.00e+03 kp              3.50e+02       0       1
kpkx1_24      log        factor    1.000000      1.00e-08    1.00e+03 kp              3.50e+02       0       1
kpkx1_25      log        factor   0.3994908      1.00e-08    1.00e+03 kp              3.42e+02       0       1
kpkx1_26      fixed      factor    1.430000      1.00e-08    1.00e+03 kp              3.53e+02       0       1
kpkx1_27      fixed      factor    1.430000      1.00e-08    1.00e+03 kp              3.35e+02       0       1
kpkx1_28      log        factor    1.000000      1.00e-08    1.00e+03 kp              3.50e+02       0       1
kpkx1_29      log        factor    1.000000      1.00e-08    1.00e+03 kp              3.50e+02       0       1
kpkx1_30      log        factor   0.7334581      1.00e-08    1.00e+03 kp              3.86e+02       0       1
kpkx1_31      log        factor   0.3732839      1.00e-08    1.00e+03 kp              3.46e+02       0       1
kpkx1_32      fixed      factor    1.000000      1.00e-08    1.00e+03 kp              3.50e+02       0       1
kpkx1_33      fixed      factor    1.000000      1.00e-08    1.00e+03 kp              3.50e+02       0       1
kpkx1_34      log        factor    1.056877      1.00e-08    1.00e+03 kp              4.19e+02       0       1
kpkx1_35      fixed      factor    1.000000      1.00e-08    1.00e+03 kp              3.50e+02       0       1
kpkx2_1       log        factor   0.7144494      1.00e-08    1.00e+03 kp              9.64e-05       0       1
kpkx2_2       log        factor    1.103724      1.00e-08    1.00e+03 kp              1.18e-08       0       1
kpkx2_3       log        factor    1.207819      1.00e-08    1.00e+03 kp              1.27e-04       0       1
kpkx2_4       log        factor   0.4450141      1.00e-08    1.00e+03 kp              1.17e-04       0       1
kpkx2_5       log        factor   0.9902547      1.00e-08    1.00e+03 kp              9.31e-05       0       1
kpkx2_6       log        factor    1.356094      1.00e-08    1.00e+03 kp              7.47e-05       0       1
kpkx2_7       log        factor    1.201762      1.00e-08    1.00e+03 kp              6.25e-05       0       1
kpkx2_8       log        factor   0.9900876      1.00e-08    1.00e+03 kp              4.15e-05       0       1
kpkx2_9       log        factor    3.846790      1.00e-08    1.00e+03 kp              9.74e-05       0       1
kpkx2_10      log        factor   0.5536418      1.00e-08    1.00e+03 kp              6.73e-05       0       1
kpkx2_11      log        factor   0.7178966      1.00e-08    1.00e+03 kp              1.13e-04       0       1
kpkx2_12      log        factor   0.6631340      1.00e-08    1.00e+03 kp              1.08e-04       0       1
kpkx2_13      log        factor   0.9096913      1.00e-08    1.00e+03 kp              1.10e-04       0       1
kpkx2_14      log        factor    1.133824      1.00e-08    1.00e+03 kp              1.02e-01       0       1
kpkx2_15      log        factor   0.7719902      1.00e-08    1.00e+03 kp              7.82e-02       0       1
kpkx2_16      log        factor    1.356787      1.00e-08    1.00e+03 kp              1.11e-01       0       1
kpkx2_17      log        factor   0.8321571      1.00e-08    1.00e+03 kp              1.19e-01       0       1
kpkx2_18      log        factor   0.8952544      1.00e-08    1.00e+03 kp              1.06e-01       0       1
kpkx2_19      log        factor   0.6952287      1.00e-08    1.00e+03 kp              1.19e-01       0       1
kpkx2_20      log        factor   0.7707824      1.00e-08    1.00e+03 kp              1.01e-01       0       1
kpkx2_21      log        factor   0.6702927      1.00e-08    1.00e+03 kp              1.20e-01       0       1
kpkx2_22      log        factor    1.219056      1.00e-08    1.00e+03 kp              7.60e-02       0       1
kpkx3_1       log        factor   8.8196691E-02  1.00e-08    1.00e+03 kp              7.61e+01       0       1
kpkx3_2       log        factor   0.2603639      1.00e-08    1.00e+03 kp              2.44e+02       0       1
kpkx3_3       log        factor    1.229328      1.00e-08    1.00e+03 kp              2.57e+02       0       1
kpkx3_4       log        factor   0.3321552      1.00e-08    1.00e+03 kp              2.53e+02       0       1
kpkx3_5       log        factor   0.4992744      1.00e-08    1.00e+03 kp              2.55e+02       0       1
kpkx3_6       log        factor   0.7208948      1.00e-08    1.00e+03 kp              5.17e+01       0       1
kpkx3_7       log        factor   0.7239608      1.00e-08    1.00e+03 kp              2.43e+02       0       1
kpkx3_8       log        factor   0.4223735      1.00e-08    1.00e+03 kp              1.94e+02       0       1
kpkx3_9       log        factor   0.6071960      1.00e-08    1.00e+03 kp              2.86e+02       0       1
kpkx3_10      fixed      factor    1.000000      1.00e-08    1.00e+03 kp              5.00e+02       0       1
kpkx3_11      fixed      factor    1.000000      1.00e-08    1.00e+03 kp              5.00e+02       0       1
kpkx3_12      fixed      factor    1.000000      1.00e-08    1.00e+03 kp              5.00e+02       0       1
kpkx3_13      fixed      factor    1.000000      1.00e-08    1.00e+03 kp              5.00e+02       0       1
kpkx3_14      fixed      factor    1.000000      1.00e-08    1.00e+03 kp              5.00e+02       0       1
kpkx3_15      fixed      factor    1.000000      1.00e-08    1.00e+03 kp              5.00e+02       0       1
kpkx4_1       log        factor   0.9205484      1.00e-08    1.00e+03 kp              1.11e-01       0       1
kpkx4_2       log        factor    2.673245      1.00e-08    1.00e+03 kp              1.10e-01       0       1
kpkx4_3       log        factor   0.6598915      1.00e-08    1.00e+03 kp              9.53e-02       0       1
kpkx4_4       log        factor   0.8606185      1.00e-08    1.00e+03 kp              8.48e-02       0       1
kpkx4_5       log        factor    1.176880      1.00e-08    1.00e+03 kp              1.07e-01       0       1
kpkx4_6       log        factor    1.492630      1.00e-08    1.00e+03 kp              1.25e-01       0       1
kpkx4_7       log        factor    1.149928      1.00e-08    1.00e+03 kp              3.62e-02       0       1
kpkx4_8       log        factor    1.233540      1.00e-08    1.00e+03 kp              3.11e-02       0       1
kpkx4_9       log        factor    1.154315      1.00e-08    1.00e+03 kp              2.70e-01       0       1
kpkx4_10      log        factor   0.7285172      1.00e-08    1.00e+03 kp              1.60e-01       0       1
kpkx4_11      log        factor    1.317552      1.00e-08    1.00e+03 kp              2.00e-01       0       1
kpkx4_12      log        factor    1.034607      1.00e-08    1.00e+03 kp              1.06e-01       0       1
kpkx4_13      log        factor   0.6036519      1.00e-08    1.00e+03 kp              9.50e-02       0       1
kpkx4_14      log        factor    1.368393      1.00e-08    1.00e+03 kp              1.12e-01       0       1
kpkx4_15      log        factor    1.380175      1.00e-08    1.00e+03 kp              1.14e-01       0       1
kpkx4_16      log        factor    1.585951      1.00e-08    1.00e+03 kp              9.86e-02       0       1
kpkx4_17      log        factor   0.4518916      1.00e-08    1.00e+03 kp              1.23e-01       0       1
kpkx4_18      log        factor   0.8189186      1.00e-08    1.00e+03 kp              7.10e-02       0       1
kpkx4_19      log        factor   0.9162621      1.00e-08    1.00e+03 kp              2.00e-01       0       1
kpkx4_20      log        factor    1.263075      1.00e-08    1.00e+03 kp              1.27e-01       0       1
kpkx4_21      log        factor    1.174621      1.00e-08    1.00e+03 kp              1.37e-01       0       1
kpkx4_22      log        factor   0.8164053      1.00e-08    1.00e+03 kp              1.15e-01       0       1
kpkx4_23      log        factor    1.615803      1.00e-08    1.00e+03 kp              1.38e-01       0       1