pcf
* control data
restart regularisation
    150  29350      1      0     18  
    1    4 double point  1    0  0
   10.000       -3.0000      0.3  0.03  10     999  lamforgive  derforgive
      0.100  10.0  0.001
 0.1
    50  0.005  4  4  0.005  4     1.00000000e-04       0
1  1  1  1 nojcosaveitn reisaveitn
* singular value decomposition
     1
   150  5.0000000E-07
     0
* svd assist
nacp7reg.pst
nacp7reg.jco
    1    2    0    1    0
* parameter groups
 pargp absolute    0.015  0.0  switch    2.0 parabolic
* parameter data
par1         none  relative   10.000     1.0e-20  1.0e20  pargp  1.0  -10.000      1
par2         none  relative   10.000     1.0e-20  1.0e20  pargp  1.0  -10.000      1
par3         none  relative   10.000     1.0e-20  1.0e20  pargp  1.0  -10.000      1
par4         none  relative   10.000     1.0e-20  1.0e20  pargp  1.0  -10.000      1
par5         none  relative   10.000     1.0e-20  1.0e20  pargp  1.0  -10.000      1
par6         none  relative   10.000     1.0e-20  1.0e20  pargp  1.0  -10.000      1
par7         none  relative   10.000     1.0e-20  1.0e20  pargp  1.0  -10.000      1
par8         none  relative   10.000     1.0e-20  1.0e20  pargp  1.0  -10.000      1
par9         none  relative   10.000     1.0e-20  1.0e20  pargp  1.0  -10.000      1
par10        none  relative   10.000     1.0e-20  1.0e20  pargp  1.0  -10.000      1
par11        none  relative   10.000     1.0e-20  1.0e20  pargp  1.0  -10.000      1
par12        none  relative   10.000     1.0e-20  1.0e20  pargp  1.0  -10.000      1
par13        none  relative   10.000     1.0e-20  1.0e20  pargp  1.0  -10.000      1
par14        none  relative   10.000     1.0e-20  1.0e20  pargp  1.0  -10.000      1
par15        none  relative   10.000     1.0e-20  1.0e20  pargp  1.0  -10.000      1
par16        none  relative   10.000     1.0e-20  1.0e20  pargp  1.0  -10.000      1
par17        none  relative   10.000     1.0e-20  1.0e20  pargp  1.0  -10.000      1
par18        none  relative   10.000     1.0e-20  1.0e20  pargp  1.0  -10.000      1
par19        none  relative   10.000     1.0e-20  1.0e20  pargp  1.0  -10.000      1
par20        none  relative   10.000     1.0e-20  1.0e20  pargp  1.0  -10.000      1
par21        none  relative   10.000     1.0e-20  1.0e20  pargp  1.0  -10.000      1
par22        none  relative   10.000     1.0e-20  1.0e20  pargp  1.0  -10.000      1
par23        none  relative   10.000     1.0e-20  1.0e20  pargp  1.0  -10.000      1
par24        none  relative   10.000     1.0e-20  1.0e20  pargp  1.0  -10.000      1
par25        none  relative   10.000     1.0e-20  1.0e20  pargp  1.0  -10.000      1
par26        none  relative   10.000     1.0e-20  1.0e20  pargp  1.0  -10.000      1
par27        none  relative   10.000     1.0e-20  1.0e20  pargp  1.0  -10.000      1
par28        none  relative   10.000     1.0e-20  1.0e20  pargp  1.0  -10.000      1
par29        none  relative   10.000     1.0e-20  1.0e20  pargp  1.0  -10.000      1
par30        none  relative   10.000     1.0e-20  1.0e20  pargp  1.0  -10.000      1
par31        none  relative   10.000     1.0e-20  1.0e20  pargp  1.0  -10.000      1
par32        none  relative   10.000     1.0e-20  1.0e20  pargp  1.0  -10.000      1
par33        none  relative   10.000     1.0e-20  1.0e20  pargp  1.0  -10.000      1
par34        none  relative   10.000     1.0e-20  1.0e20  pargp  1.0  -10.000      1
par35        none  relative   10.000     1.0e-20  1.0e20  pargp  1.0  -10.000      1
par36        none  relative   10.000     1.0e-20  1.0e20  pargp  1.0  -10.000      1
par37        none  relative   10.000     1.0e-20  1.0e20  pargp  1.0  -10.000      1
par38        none  relative   10.000     1.0e-20  1.0e20  pargp  1.0  -10.000      1
par39        none  relative   10.000     1.0e-20  1.0e20  pargp  1.0  -10.000      1
par40        none  relative   10.000     1.0e-20  1.0e20  pargp  1.0  -10.000      1
par41        none  relative   10.000     1.0e-20  1.0e20  pargp  1.0  -10.000      1
par42        none  relative   10.000     1.0e-20  1.0e20  pargp  1.0  -10.000      1
par43        none  relative   10.000     1.0e-20  1.0e20  pargp  1.0  -10.000      1
par44        none  relative   10.000     1.0e-20  1.0e20  pargp  1.0  -10.000      1
par45        none  relative   10.000     1.0e-20  1.0e20  pargp  1.0  -10.000      1
par46        none  relative   10.000     1.0e-20  1.0e20  pargp  1.0  -10.000      1
par47        none  relative   10.000     1.0e-20  1.0e20  pargp  1.0  -10.000      1
par48        none  relative   10.000     1.0e-20  1.0e20  pargp  1.0  -10.000      1
par49        none  relative   10.000     1.0e-20  1.0e20  pargp  1.0  -10.000      1
par50        none  relative   10.000     1.0e-20  1.0e20  pargp  1.0  -10.000      1
par51        none  relative   10.000     1.0e-20  1.0e20  pargp  1.0  -10.000      1
par52        none  relative   10.000     1.0e-20  1.0e20  pargp  1.0  -10.000      1
par53        none  relative   10.000     1.0e-20  1.0e20  pargp  1.0  -10.000      1
par54        none  relative   10.000     1.0e-20  1.0e20  pargp  1.0  -10.000      1
par55        none  relative   10.000     1.0e-20  1.0e20  pargp  1.0  -10.000      1
par56        none  relative   10.000     1.0e-20  1.0e20  pargp  1.0  -10.000      1
par57        none  relative   10.000     1.0e-20  1.0e20  pargp  1.0  -10.000      1
par58        none  relative   10.000     1.0e-20  1.0e20  pargp  1.0  -10.000      1
par59        none  relative   10.000     1.0e-20  1.0e20  pargp  1.0  -10.000      1
par60        none  relative   10.000     1.0e-20  1.0e20  pargp  1.0  -10.000      1
par61        none  relative   10.000     1.0e-20  1.0e20  pargp  1.0  -10.000      1
par62        none  relative   10.000     1.0e-20  1.0e20  pargp  1.0  -10.000      1
par63        none  relative   10.000     1.0e-20  1.0e20  pargp  1.0  -10.000      1
par64        none  relative   10.000     1.0e-20  1.0e20  pargp  1.0  -10.000      1
par65        none  relative   10.000     1.0e-20  1.0e20  pargp  1.0  -10.000      1
par66        none  relative   10.000     1.0e-20  1.0e20  pargp  1.0  -10.000      1
par67        none  relative   10.000     1.0e-20  1.0e20  pargp  1.0  -10.000      1
par68        none  relative   10.000     1.0e-20  1.0e20  pargp  1.0  -10.000      1
par69        none  relative   10.000     1.0e-20  1.0e20  pargp  1.0  -10.000      1
par70        none  relative   10.000     1.0e-20  1.0e20  pargp  1.0  -10.000      1
par71        none  relative   10.000     1.0e-20  1.0e20  pargp  1.0  -10.000      1
par72        none  relative   10.000     1.0e-20  1.0e20  pargp  1.0  -10.000      1
par73        none  relative   10.000     1.0e-20  1.0e20  pargp  1.0  -10.000      1
par74        none  relative   10.000     1.0e-20  1.0e20  pargp  1.0  -10.000      1
par75        none  relative   10.000     1.0e-20  1.0e20  pargp  1.0  -10.000      1
par76        none  relative   10.000     1.0e-20  1.0e20  pargp  1.0  -10.000      1
par77        none  relative   10.000     1.0e-20  1.0e20  pargp  1.0  -10.000      1
par78        none  relative   10.000     1.0e-20  1.0e20  pargp  1.0  -10.000      1
par79        none  relative   10.000     1.0e-20  1.0e20  pargp  1.0  -10.000      1
par80        none  relative   10.000     1.0e-20  1.0e20  pargp  1.0  -10.000      1
par81        none  relative   10.000     1.0e-20  1.0e20  pargp  1.0  -10.000      1
par82        none  relative   10.000     1.0e-20  1.0e20  pargp  1.0  -10.000      1
par83        none  relative   10.000     1.0e-20  1.0e20  pargp  1.0  -10.000      1
par84        none  relative   10.000     1.0e-20  1.0e20  pargp  1.0  -10.000      1
par85        none  relative   10.000     1.0e-20  1.0e20  pargp  1.0  -10.000      1
par86        none  relative   10.000     1.0e-20  1.0e20  pargp  1.0  -10.000      1
par87        none  relative   10.000     1.0e-20  1.0e20  pargp  1.0  -10.000      1
par88        none  relative   10.000     1.0e-20  1.0e20  pargp  1.0  -10.000      1
par89        none  relative   10.000     1.0e-20  1.0e20  pargp  1.0  -10.000      1
par90        none  relative   10.000     1.0e-20  1.0e20  pargp  1.0  -10.000      1
par91        none  relative   10.000     1.0e-20  1.0e20  pargp  1.0  -10.000      1
par92        none  relative   10.000     1.0e-20  1.0e20  pargp  1.0  -10.000      1
par93        none  relative   10.000     1.0e-20  1.0e20  pargp  1.0  -10.000      1
par94        none  relative   10.000     1.0e-20  1.0e20  pargp  1.0  -10.000      1
par95        none  relative   10.000     1.0e-20  1.0e20  pargp  1.0  -10.000      1
par96        none  relative   10.000     1.0e-20  1.0e20  pargp  1.0  -10.000      1
par97        none  relative   10.000     1.0e-20  1.0e20  pargp  1.0  -10.000      1
par98        none  relative   10.000     1.0e-20  1.0e20  pargp  1.0  -10.000      1
par99        none  relative   10.000     1.0e-20  1.0e20  pargp  1.0  -10.000      1
par100       none  relative   10.000     1.0e-20  1.0e20  pargp  1.0  -10.000      1
par101       none  relative   10.000     1.0e-20  1.0e20  pargp  1.0  -10.000      1
par102       none  relative   10.000     1.0e-20  1.0e20  pargp  1.0  -10.000      1
par103       none  relative   10.000     1.0e-20  1.0e20  pargp  1.0  -10.000      1
par104       none  relative   10.000     1.0e-20  1.0e20  pargp  1.0  -10.000      1
par105       none  relative   10.000     1.0e-20  1.0e20  pargp  1.0  -10.000      1
par106       none  relative   10.000     1.0e-20  1.0e20  pargp  1.0  -10.000      1
par107       none  relative   10.000     1.0e-20  1.0e20  pargp  1.0  -10.000      1
par108       none  relative   10.000     1.0e-20  1.0e20  pargp  1.0  -10.000      1
par109       none  relative   10.000     1.0e-20  1.0e20  pargp  1.0  -10.000      1
par110       none  relative   10.000     1.0e-20  1.0e20  pargp  1.0  -10.000      1
par111       none  relative   10.000     1.0e-20  1.0e20  pargp  1.0  -10.000      1
par112       none  relative   10.000     1.0e-20  1.0e20  pargp  1.0  -10.000      1
par113       none  relative   10.000     1.0e-20  1.0e20  pargp  1.0  -10.000      1
par114       none  relative   10.000     1.0e-20  1.0e20  pargp  1.0  -10.000      1
par115       none  relative   10.000     1.0e-20  1.0e20  pargp  1.0  -10.000      1
par116       none  relative   10.000     1.0e-20  1.0e20  pargp  1.0  -10.000      1
par117       none  relative   10.000     1.0e-20  1.0e20  pargp  1.0  -10.000      1
par118       none  relative   10.000     1.0e-20  1.0e20  pargp  1.0  -10.000      1
par119       none  relative   10.000     1.0e-20  1.0e20  pargp  1.0  -10.000      1
par120       none  relative   10.000     1.0e-20  1.0e20  pargp  1.0  -10.000      1
par121       none  relative   10.000     1.0e-20  1.0e20  pargp  1.0  -10.000      1
par122       none  relative   10.000     1.0e-20  1.0e20  pargp  1.0  -10.000      1
par123       none  relative   10.000     1.0e-20  1.0e20  pargp  1.0  -10.000      1
par124       none  relative   10.000     1.0e-20  1.0e20  pargp  1.0  -10.000      1
par125       none  relative   10.000     1.0e-20  1.0e20  pargp  1.0  -10.000      1
par126       none  relative   10.000     1.0e-20  1.0e20  pargp  1.0  -10.000      1
par127       none  relative   10.000     1.0e-20  1.0e20  pargp  1.0  -10.000      1
par128       none  relative   10.000     1.0e-20  1.0e20  pargp  1.0  -10.000      1
par129       none  relative   10.000     1.0e-20  1.0e20  pargp  1.0  -10.000      1
par130       none  relative   10.000     1.0e-20  1.0e20  pargp  1.0  -10.000      1
par131       none  relative   10.000     1.0e-20  1.0e20  pargp  1.0  -10.000      1
par132       none  relative   10.000     1.0e-20  1.0e20  pargp  1.0  -10.000      1
par133       none  relative   10.000     1.0e-20  1.0e20  pargp  1.0  -10.000      1
par134       none  relative   10.000     1.0e-20  1.0e20  pargp  1.0  -10.000      1
par135       none  relative   10.000     1.0e-20  1.0e20  pargp  1.0  -10.000      1
par136       none  relative   10.000     1.0e-20  1.0e20  pargp  1.0  -10.000      1
par137       none  relative   10.000     1.0e-20  1.0e20  pargp  1.0  -10.000      1
par138       none  relative   10.000     1.0e-20  1.0e20  pargp  1.0  -10.000      1
par139       none  relative   10.000     1.0e-20  1.0e20  pargp  1.0  -10.000      1
par140       none  relative   10.000     1.0e-20  1.0e20  pargp  1.0  -10.000      1
par141       none  relative   10.000     1.0e-20  1.0e20  pargp  1.0  -10.000      1
par142       none  relative   10.000     1.0e-20  1.0e20  pargp  1.0  -10.000      1
par143       none  relative   10.000     1.0e-20  1.0e20  pargp  1.0  -10.000      1
par144       none  relative   10.000     1.0e-20  1.0e20  pargp  1.0  -10.000      1
par145       none  relative   10.000     1.0e-20  1.0e20  pargp  1.0  -10.000      1
par146       none  relative   10.000     1.0e-20  1.0e20  pargp  1.0  -10.000      1
par147       none  relative   10.000     1.0e-20  1.0e20  pargp  1.0  -10.000      1
par148       none  relative   10.000     1.0e-20  1.0e20  pargp  1.0  -10.000      1
par149       none  relative   10.000     1.0e-20  1.0e20  pargp  1.0  -10.000      1
par150       none  relative   10.000     1.0e-20  1.0e20  pargp  1.0  -10.000      1
* observation groups
 Q_NHD
 Q_NWIS
 A1
 B1
 C1
 D1
 Z
 A1d
 B1d
 C1d
 D1d
 Zd
regul_kx
regul_stor
regul_rch
regul_kp
regul_kz
regul_sp
* observation data
 50929nhd   2.92100000e+01  1.02704700e-03 q_nhd
 52942nhd   3.06800000e+01  9.77691000e-04 q_nhd
 47418nhd   1.04000000e+01  2.88456000e-03 q_nhd
 43422nhd   2.04800000e+01  1.46515800e-03 q_nhd
 37360nhd   3.31300000e+01  9.05409000e-04 q_nhd
 36361nhd   4.27300000e+01  7.02105000e-04 q_nhd
 32864nhd   2.13200000e+01  1.40728200e-03 q_nhd
 30359nhd   1.77350000e+02  1.69161000e-04 q_nhd
 27860nhd   4.00600000e+01  7.48887000e-04 q_nhd
 26845nhd   1.58330000e+02  1.89471000e-04 q_nhd
 41352nhd   8.25500000e+01  3.63432000e-04 q_nhd
 41848nhd   4.77500000e+01  6.28275000e-04 q_nhd
 45336nhd   5.99600000e+01  5.00349000e-04 q_nhd
 44313nhd   2.01300000e+02  1.49028000e-04 q_nhd
 41807nhd   8.50300000e+01  3.52824000e-04 q_nhd
 26835nhd   1.54240000e+02  1.94499000e-04 q_nhd
 29832nhd   3.06400000e+01  9.78999000e-04 q_nhd
 28828nhd   1.76300000e+01  1.70165400e-03 q_nhd
 28826nhd   5.96600000e+01  5.02881000e-04 q_nhd
 27304nhd   9.48400000e+01  3.16338000e-04 q_nhd
 27798nhd   5.63500000e+01  5.32410000e-04 q_nhd
 25791nhd   6.67100000e+01  4.49709000e-04 q_nhd
 24288nhd   4.68600000e+01  6.40173000e-04 q_nhd
 20777nhd   7.03400000e+01  4.26480000e-04 q_nhd
 38281nhd   3.23090000e+02  9.28530000e-05 q_nhd
 40283nhd   4.14100000e+01  7.24419000e-04 q_nhd
 47276nhd   4.88700000e+01  6.13881000e-04 q_nhd
 29261nhd   7.87500000e+01  3.80964000e-04 q_nhd
 31256nhd   3.28000000e+01  9.14646000e-04 q_nhd
 34252nhd   4.41400000e+01  6.79644000e-04 q_nhd
 38243nhd   2.68900000e+01  1.11558900e-03 q_nhd
 38742nhd   1.97500000e+01  1.51900200e-03 q_nhd
 41245nhd   6.31500000e+01  4.75044000e-04 q_nhd
 14242nhd   2.25600000e+01  1.32951600e-03 q_nhd
 12241nhd   1.13400000e+01  2.64627300e-03 q_nhd
 10736nhd   6.62000000e+00  4.53425700e-03 q_nhd
 10226nhd   1.44400000e+01  2.07825300e-03 q_nhd
 8221nhd   1.48700000e+01  2.01795900e-03 q_nhd
 8718nhd   6.34300000e+01  4.72956000e-04 q_nhd
 16195nhd   2.01570000e+02  1.48830000e-04 q_nhd
 20188nhd   2.45600000e+01  1.22154300e-03 q_nhd
 15763nhd   2.61400000e+01  1.14763200e-03 q_nhd
 17265nhd   1.62700000e+01  1.84336200e-03 q_nhd
 18266nhd   1.91000000e+01  1.57109100e-03 q_nhd
 24747nhd   1.12020000e+02  2.67810000e-04 q_nhd
 24743nhd   3.05600000e+01  9.81696000e-04 q_nhd
 30226nhd   1.17690000e+02  2.54916000e-04 q_nhd
 32234nhd   1.61530000e+02  1.85730000e-04 q_nhd
 33230nhd   2.03800000e+01  1.47182100e-03 q_nhd
 38720nhd   1.83640000e+02  1.63365000e-04 q_nhd
 43725nhd   1.50340000e+02  1.99545000e-04 q_nhd
 45224nhd   6.75500000e+01  4.44117000e-04 q_nhd
 49708nhd   4.50700000e+01  6.65694000e-04 q_nhd
 58208nhd   2.11530000e+02  1.41822000e-04 q_nhd
 9692nhd   1.18180000e+02  2.53854000e-04 q_nhd
 9672nhd   2.16600000e+01  1.38517500e-03 q_nhd
 8671nhd   1.91500000e+01  1.56632700e-03 q_nhd
 13678nhd   6.59100000e+01  4.55190000e-04 q_nhd
 13168nhd   8.81200000e+01  3.40443000e-04 q_nhd
 12146nhd   3.20100000e+01  9.37272000e-04 q_nhd
 20166nhd   1.20540000e+02  2.48877000e-04 q_nhd
 21166nhd   5.17100000e+01  5.80179000e-04 q_nhd
 28668nhd   3.86700000e+01  7.75854000e-04 q_nhd
 33670nhd   3.55200000e+01  8.44479000e-04 q_nhd
 14139nhd   3.97000000e+01  7.55583000e-04 q_nhd
 27142nhd   3.34000000e+01  8.98230000e-04 q_nhd
 31148nhd   4.86100000e+01  6.17217000e-04 q_nhd
 31140nhd   2.63300000e+01  1.13952900e-03 q_nhd
 32139nhd   2.49000000e+01  1.20496800e-03 q_nhd
 33137nhd   3.18500000e+01  9.41838000e-04 q_nhd
 37147nhd   2.87400000e+01  1.04375400e-03 q_nhd
 46131nhd   1.35700000e+02  2.21076000e-04 q_nhd
 51125nhd   3.12800000e+01  9.58938000e-04 q_nhd
 51624nhd   1.56000000e+01  1.92348300e-03 q_nhd
 33114nhd   2.92100000e+01  1.02688500e-03 q_nhd
 34617nhd   2.77200000e+01  1.08215700e-03 q_nhd
 46625nhd   1.52400000e+01  1.96880100e-03 q_nhd
 30095nhd   8.16000000e+00  3.67728300e-03 q_nhd
 31095nhd   9.86000000e+00  3.04364700e-03 q_nhd
 38098nhd   2.59200000e+01  1.15725600e-03 q_nhd
 35084nhd   1.27900000e+01  2.34615000e-03 q_nhd
 43095nhd   1.96600000e+01  1.52616600e-03 q_nhd
 48607nhd   1.93800000e+01  1.54797900e-03 q_nhd
 54103nhd   1.43600000e+01  2.08936800e-03 q_nhd
 60612nhd   1.23300000e+01  2.43320700e-03 q_nhd
 57597nhd   2.02300000e+01  1.48294500e-03 q_nhd
 62590nhd   5.99600000e+01  5.00376000e-04 q_nhd
 64088nhd   9.42900000e+01  3.18150000e-04 q_nhd
 60066nhd   7.05880000e+02  4.25010000e-05 q_nhd
 58563nhd   3.40500000e+01  8.80986000e-04 q_nhd
 61565nhd   1.00940000e+02  2.97213000e-04 q_nhd
 75579nhd   1.86410000e+02  1.60935000e-04 q_nhd
 76104nhd   2.26000000e+01  1.32749700e-03 q_nhd
 76100nhd   3.08200000e+01  9.73302000e-04 q_nhd
 59056nhd   3.31480000e+02  9.05040000e-05 q_nhd
 58054nhd   6.92300000e+01  4.33362000e-04 q_nhd
 61558nhd   9.99000000e+00  3.00414600e-03 q_nhd
 62053nhd   2.05830000e+02  1.45752000e-04 q_nhd
 67061nhd   4.11900000e+01  7.28415000e-04 q_nhd
 68064nhd   9.15700000e+01  3.27627000e-04 q_nhd
 60530nhd   2.41180000e+02  1.24389000e-04 q_nhd
 60525nhd   1.85500000e+01  1.61688600e-03 q_nhd
 73530nhd   5.77700000e+01  5.19270000e-04 q_nhd
 70533nhd   9.82700000e+01  3.05268000e-04 q_nhd
 73522nhd   1.08470000e+02  2.76585000e-04 q_nhd
 74505nhd   1.71380000e+02  1.75047000e-04 q_nhd
 74004nhd   8.19300000e+01  3.66174000e-04 q_nhd
 64501nhd   5.56240000e+02  5.39340000e-05 q_nhd
 65501nhd   9.39400000e+01  3.19365000e-04 q_nhd
 43339nhd   2.00410000e+02  1.49697000e-04 q_nhd
 41307nhd   1.82580000e+02  1.64316000e-04 q_nhd
 28835nhd   1.99990000e+02  1.50003000e-04 q_nhd
 29319nhd   5.16140000e+02  5.81250000e-05 q_nhd
 10737nhd   5.38000000e+00  5.57797000e-03 q_nhd
 16692nhd   1.13180000e+02  2.65059000e-04 q_nhd
 46719nhd   8.84200000e+01  3.39279000e-04 q_nhd
 31625nhd   4.70730000e+02  6.37290000e-05 q_nhd
 32117nhd   2.48300000e+02  1.20825000e-04 q_nhd
 35114nhd   3.16800000e+01  9.46971000e-04 q_nhd
 39108nhd   2.27740000e+02  1.31727000e-04 q_nhd
 58065nhd   7.84660000e+02  3.82320000e-05 q_nhd
 66551nhd   1.58510000e+02  1.89264000e-04 q_nhd
 68552nhd   6.69700000e+01  4.47963000e-04 q_nhd
 60031nhd   1.62500000e+01  1.84642800e-03 q_nhd
 71534nhd   1.61510000e+02  1.85748000e-04 q_nhd
 78007nhd   5.71900000e+01  5.24610000e-04 q_nhd
 19777nhd   6.04200000e+01  4.96485000e-04 q_nhd
 85515nhd   6.00000000e+01  5.00043000e-04 q_nhd
 34627nhd   2.77700000e+01  1.08012300e-03 q_nhd
 q002_86   1.22700000e+01  8.15175300e-04 q_nwis
 q002_87   2.31200000e+01  4.32559600e-04 q_nwis
 q002_88   1.26500000e+01  7.90401400e-04 q_nwis
 q002_89   4.03500000e+01  2.47816700e-04 q_nwis
 q002_90   2.01800000e+01  4.95458300e-04 q_nwis
 q002_91   1.42200000e+01  7.02990200e-04 q_nwis
 q002_92   2.03200000e+01  4.92118700e-04 q_nwis
 q002_93   2.68400000e+01  3.72510700e-04 q_nwis
 q002_94   1.40500000e+01  7.11829900e-04 q_nwis
 q002_95   1.05700000e+01  9.45857500e-04 q_nwis
 q002_96   2.33000000e+01  4.29137000e-04 q_nwis
 q002_97   1.57400000e+01  6.35212400e-04 q_nwis
 q002_98   2.73300000e+01  3.65918800e-04 q_nwis
 q002_99   2.84000000e+01  3.52083700e-04 q_nwis
 q002_00   2.03700000e+01  4.90946100e-04 q_nwis
 q002_01   1.05600000e+01  9.46635000e-04 q_nwis
 q002_02   1.09800000e+01  9.10821500e-04 q_nwis
 q002_03   3.04000000e+01  3.28992800e-04 q_nwis
 q002_04   2.02600000e+01  4.93607800e-04 q_nwis
 q002_05   1.85000000e+01  5.40538600e-04 q_nwis
 q002_08   1.13900000e+01  8.77815400e-04 q_nwis
 q002_09   1.34500000e+01  7.43632600e-04 q_nwis
 q004_86   3.02500000e+01  3.30584000e-04 q_nwis
 q005_86   7.20800000e+01  1.38735000e-04 q_nwis
 q005_87   9.82600000e+01  1.01771100e-04 q_nwis
 q005_88   7.54200000e+01  1.32591800e-04 q_nwis
 q005_89   1.18410000e+02  8.44558900e-05 q_nwis
 q005_90   1.05800000e+02  9.45204000e-05 q_nwis
 q005_91   7.95000000e+01  1.25779700e-04 q_nwis
 q005_92   6.86300000e+01  1.45711800e-04 q_nwis
 q005_93   1.00820000e+02  9.91840100e-05 q_nwis
 q005_94   1.10130000e+02  9.08037600e-05 q_nwis
 q005_95   6.67100000e+01  1.49913400e-04 q_nwis
 q005_96   1.41140000e+02  7.08517400e-05 q_nwis
 q005_97   8.11600000e+01  1.23216400e-04 q_nwis
 q005_98   8.55900000e+01  1.16834100e-04 q_nwis
 q005_99   5.95800000e+01  1.67851700e-04 q_nwis
 q005_00   7.68500000e+01  1.30118000e-04 q_nwis
 q005_01   8.62000000e+01  1.16015100e-04 q_nwis
 q005_02   6.27100000e+01  1.59461600e-04 q_nwis
 q005_03   1.18850000e+02  8.41375100e-05 q_nwis
 q005_04   8.77100000e+01  1.14013100e-04 q_nwis
 q005_05   9.12000000e+01  1.09650400e-04 q_nwis
 q005_06   9.53000000e+01  1.04937100e-04 q_nwis
 q005_07   8.32400000e+01  1.20140900e-04 q_nwis
 q005_08   8.07200000e+01  1.23886300e-04 q_nwis
 q005_09   1.09720000e+02  9.11383900e-05 q_nwis
 q006_93   3.73100000e+01  2.68010300e-04 q_nwis
 q006_94   4.24800000e+01  2.35418700e-04 q_nwis
 q006_01   2.34700000e+01  4.26028300e-04 q_nwis
 q006_02   1.84500000e+01  5.41871300e-04 q_nwis
 q006_03   4.21900000e+01  2.37050700e-04 q_nwis
 q006_04   3.09800000e+01  3.22772200e-04 q_nwis
 q006_05   3.54400000e+01  2.82172400e-04 q_nwis
 q006_06   3.72900000e+01  2.68185700e-04 q_nwis
 q006_07   3.11700000e+01  3.20864400e-04 q_nwis
 q006_08   2.82700000e+01  3.53765200e-04 q_nwis
 q006_09   3.57600000e+01  2.79662900e-04 q_nwis
 q007_86   8.10900000e+01  1.23312600e-04 q_nwis
 q007_87   1.04000000e+02  9.61542300e-05 q_nwis
 q007_88   7.96700000e+01  1.25511700e-04 q_nwis
 q007_89   1.11670000e+02  8.95490300e-05 q_nwis
 q007_90   1.00650000e+02  9.93564200e-05 q_nwis
 q007_91   1.03440000e+02  9.66741700e-05 q_nwis
 q007_92   8.64100000e+01  1.15728400e-04 q_nwis
 q007_93   9.91900000e+01  1.00812000e-04 q_nwis
 q007_94   1.08540000e+02  9.21351000e-05 q_nwis
 q007_95   7.03800000e+01  1.42085800e-04 q_nwis
 q007_96   1.18480000e+02  8.44024200e-05 q_nwis
 q007_97   9.48800000e+01  1.05398500e-04 q_nwis
 q007_98   8.86600000e+01  1.12791200e-04 q_nwis
 q007_99   8.43400000e+01  1.18574400e-04 q_nwis
 q007_00   8.06400000e+01  1.24012500e-04 q_nwis
 q007_01   7.47900000e+01  1.33714200e-04 q_nwis
 q007_02   6.36900000e+01  1.57004400e-04 q_nwis
 q007_03   1.15530000e+02  8.65544000e-05 q_nwis
 q007_04   1.07430000e+02  9.30805000e-05 q_nwis
 q008_02   1.16800000e+01  8.55871300e-04 q_nwis
 q008_03   2.89400000e+01  3.45539500e-04 q_nwis
 q008_04   2.07800000e+01  4.81214600e-04 q_nwis
 q008_05   2.19600000e+01  4.55384500e-04 q_nwis
 q008_06   1.65800000e+01  6.03214500e-04 q_nwis
 q008_07   1.42700000e+01  7.00990300e-04 q_nwis
 q008_08   9.22000000e+00  1.08477100e-03 q_nwis
 q008_09   1.89000000e+01  5.29156500e-04 q_nwis
 q010_86   1.65230000e+02  6.05205100e-05 q_nwis
 q010_87   3.52290000e+02  2.83857100e-05 q_nwis
 q010_88   2.19830000e+02  4.54907100e-05 q_nwis
 q011_86   1.09960000e+02  9.09437500e-05 q_nwis
 q011_89   2.77090000e+02  3.60893600e-05 q_nwis
 q011_90   1.73600000e+02  5.76025600e-05 q_nwis
 q011_91   9.35000000e+01  1.06951900e-04 q_nwis
 q011_92   1.37350000e+02  7.28058300e-05 q_nwis
 q011_93   1.65910000e+02  6.02735000e-05 q_nwis
 q011_94   1.31300000e+02  7.61594300e-05 q_nwis
 q011_95   7.67900000e+01  1.30217800e-04 q_nwis
 q011_96   2.85410000e+02  3.50378400e-05 q_nwis
 q011_97   1.79470000e+02  5.57208000e-05 q_nwis
 q011_98   2.42760000e+02  4.11927900e-05 q_nwis
 q011_99   1.74790000e+02  5.72112700e-05 q_nwis
 q011_00   1.64740000e+02  6.07009400e-05 q_nwis
 q011_01   8.46800000e+01  1.18095000e-04 q_nwis
 q011_02   7.67400000e+01  1.30303700e-04 q_nwis
 q011_03   3.79770000e+02  2.63316700e-05 q_nwis
 q011_04   2.66260000e+02  3.75577000e-05 q_nwis
 q011_05   1.28310000e+02  7.79344300e-05 q_nwis
 q011_06   1.80650000e+02  5.53567100e-05 q_nwis
 q011_07   9.84300000e+01  1.01592900e-04 q_nwis
 q011_08   1.17900000e+02  8.48166900e-05 q_nwis
 q011_09   1.88470000e+02  5.30577200e-05 q_nwis
 q012_86   2.08740000e+02  4.79071000e-05 q_nwis
 q012_87   4.08370000e+02  2.44878000e-05 q_nwis
 q012_88   2.63110000e+02  3.80069300e-05 q_nwis
 q012_89   6.22950000e+02  1.60526300e-05 q_nwis
 q012_90   3.47300000e+02  2.87931700e-05 q_nwis
 q012_91   1.89250000e+02  5.28390800e-05 q_nwis
 q012_92   3.22370000e+02  3.10199400e-05 q_nwis
 q012_93   4.68070000e+02  2.13642300e-05 q_nwis
 q012_94   2.91780000e+02  3.42720100e-05 q_nwis
 q012_95   1.36830000e+02  7.30828500e-05 q_nwis
 q012_96   6.21070000e+02  1.61012500e-05 q_nwis
 q012_97   3.39340000e+02  2.94690800e-05 q_nwis
 q012_98   4.83400000e+02  2.06866500e-05 q_nwis
 q012_99   4.70940000e+02  2.12341700e-05 q_nwis
 q012_00   4.18640000e+02  2.38869200e-05 q_nwis
 q012_01   1.46240000e+02  6.83787100e-05 q_nwis
 q012_02   2.07250000e+02  4.82509900e-05 q_nwis
 q012_03   8.41240000e+02  1.18872600e-05 q_nwis
 q012_04   6.61870000e+02  1.51086200e-05 q_nwis
 q012_05   3.35890000e+02  2.97714500e-05 q_nwis
 q012_06   4.39130000e+02  2.27721900e-05 q_nwis
 q012_07   1.97600000e+02  5.06077700e-05 q_nwis
 q012_08   2.18430000e+02  4.57819200e-05 q_nwis
 q012_09   3.81010000e+02  2.62463200e-05 q_nwis
 q013_87   1.08300000e+01  9.23668100e-04 q_nwis
 q013_88   9.20000000e+00  1.08645100e-03 q_nwis
 q013_89   1.31200000e+01  7.62359800e-04 q_nwis
 q013_90   1.27800000e+01  7.82276700e-04 q_nwis
 q013_91   8.68000000e+00  1.15264500e-03 q_nwis
 q013_92   1.07800000e+01  9.27755700e-04 q_nwis
 q013_93   1.63600000e+01  6.11340400e-04 q_nwis
 q013_94   1.47100000e+01  6.79808900e-04 q_nwis
 q013_95   9.63000000e+00  1.03840000e-03 q_nwis
 q013_96   2.29500000e+01  4.35652700e-04 q_nwis
 q013_97   1.38900000e+01  7.19724800e-04 q_nwis
 q013_98   1.42300000e+01  7.02846900e-04 q_nwis
 q013_99   9.42000000e+00  1.06167400e-03 q_nwis
 q013_00   1.26800000e+01  7.88525400e-04 q_nwis
 q013_01   9.72000000e+00  1.02842600e-03 q_nwis
 q013_02   6.67000000e+00  1.49898100e-03 q_nwis
 q013_03   1.97100000e+01  5.07406900e-04 q_nwis
 q013_04   1.42200000e+01  7.03275300e-04 q_nwis
 q013_05   9.70000000e+00  1.03071500e-03 q_nwis
 q013_06   1.17500000e+01  8.51154400e-04 q_nwis
 q013_07   1.11700000e+01  8.95094900e-04 q_nwis
 q013_08   1.25900000e+01  7.94117200e-04 q_nwis
 q013_09   1.51600000e+01  6.59695900e-04 q_nwis
 q014_86   1.75200000e+01  5.70917500e-04 q_nwis
 q014_87   1.98300000e+01  5.04358900e-04 q_nwis
 q014_88   1.57400000e+01  6.35341500e-04 q_nwis
 q014_89   2.62500000e+01  3.80883200e-04 q_nwis
 q014_90   3.07300000e+01  3.25378400e-04 q_nwis
 q014_91   2.78900000e+01  3.58540300e-04 q_nwis
 q014_92   1.96000000e+01  5.10280500e-04 q_nwis
 q014_93   2.17200000e+01  4.60506900e-04 q_nwis
 q014_94   2.04500000e+01  4.88882000e-04 q_nwis
 q014_95   1.42600000e+01  7.01296700e-04 q_nwis
 q014_96   1.80600000e+01  5.53766100e-04 q_nwis
 q014_97   2.21700000e+01  4.51016300e-04 q_nwis
 q014_98   2.98600000e+01  3.34855800e-04 q_nwis
 q014_99   2.25700000e+01  4.43108600e-04 q_nwis
 q014_00   1.99300000e+01  5.01869500e-04 q_nwis
 q014_01   2.24800000e+01  4.44937500e-04 q_nwis
 q014_02   1.66600000e+01  6.00192100e-04 q_nwis
 q014_03   2.71600000e+01  3.68191700e-04 q_nwis
 q014_04   2.65400000e+01  3.76772500e-04 q_nwis
 q014_05   2.56700000e+01  3.89594200e-04 q_nwis
 q014_06   3.52100000e+01  2.84027200e-04 q_nwis
 q014_07   3.42800000e+01  2.91732700e-04 q_nwis
 q014_08   2.54500000e+01  3.92967500e-04 q_nwis
 q014_09   2.68600000e+01  3.72356300e-04 q_nwis
 q015_88   3.44300000e+01  2.90434300e-04 q_nwis
 q015_89   8.37000000e+01  1.19478300e-04 q_nwis
 q015_90   4.23800000e+01  2.35940900e-04 q_nwis
 q015_91   4.24800000e+01  2.35411200e-04 q_nwis
 q015_92   4.45800000e+01  2.24303100e-04 q_nwis
 q015_93   6.05900000e+01  1.65031000e-04 q_nwis
 q015_94   3.03400000e+01  3.29627200e-04 q_nwis
 q015_95   2.53900000e+01  3.93828700e-04 q_nwis
 q015_96   7.26700000e+01  1.37601000e-04 q_nwis
 q015_97   3.35800000e+01  2.97788900e-04 q_nwis
 q015_98   5.20100000e+01  1.92285300e-04 q_nwis
 q015_99   5.71800000e+01  1.74883600e-04 q_nwis
 q015_00   3.24300000e+01  3.08380200e-04 q_nwis
 q015_01   1.98900000e+01  5.02765200e-04 q_nwis
 q015_02   3.14700000e+01  3.17719200e-04 q_nwis
 q015_03   8.83800000e+01  1.13141800e-04 q_nwis
 q015_04   4.42000000e+01  2.26248000e-04 q_nwis