pcf
* control data
restart estimation
269  27195  6  0  12
4  3  single  point  1  0  0
1.000000e+001  -3.000000e+000  3.000000e-001  1.000000e-002  7 999 lamforgive derforgive
1.000000e+001  1.000000e+001  1.000000e-003
1.000000e-001 1 noaui noboundscale
20  1.000000e-002  3  3  1.000000e-002  3 0 0
0  0  0   PARSAVEITN
* singular value decomposition
     1
   250  5.0000000E-07
     0
* parameter groups
Kx     relative   1.000000e-002  0.000000e+000  switch  2.000000e+000  parabolic
Kz     relative   1.000000e-002  0.000000e+000  switch  2.000000e+000  parabolic
Stor   relative   1.000000e-002  0.000000e+000  switch  2.000000e+000  parabolic
Rch    relative   1.000000e-002  0.000000e+000  switch  2.000000e+000  parabolic
BCCond    relative   1.000000e-002  0.000000e+000  switch  2.000000e+000  parabolic
Shead    relative   1.000000e-002  0.000000e+000  switch  2.000000e+000  parabolic
* parameter data
GHBCond    fixed    factor    1.0000000E+00    1.0000000E-05    1.0000000E+04    BCCond    6.0000000E+05    0    1
RIVCond    fixed    factor    1.0000000E+00    1.0000000E-05    1.0000000E+04    BCCond    6.0000000E+05    0    1
Kx1     log     factor     1.00E+00     1.00E-08     1.00E+03     Kx     1.50E+02     0     1
Kx2     log     factor     1.00E+00     1.00E-08     1.00E+03     Kx     1.00E-01     0     1
Kx3     log     factor     1.00E+00     1.00E-08     1.00E+03     Kx     1.50E+02     0     1
Kx4     log     factor     1.00E+00     1.00E-08     1.00E+03     Kx     1.00E-01     0     1
Kx5     log     factor     1.00E+00     1.00E-08     1.00E+03     Kx     1.50E+02     0     1
Kx6     log     factor     1.00E+00     1.00E-08     1.00E+03     Kx     1.00E-01     0     1
Kx7     log     factor     1.00E+00     1.00E-08     1.00E+03     Kx     1.94E+02     0     1
Kx8     log     factor     1.00E+00     1.00E-08     1.00E+03     Kx     1.00E-01     0     1
Kx9     log     factor     1.00E+00     1.00E-08     1.00E+03     Kx     5.40E+01     0     1
Kx10     log     factor     1.00E+00     1.00E-08     1.00E+03     Kx     1.00E-01     0     1
Kx11     log     factor     1.00E+00     1.00E-08     1.00E+03     Kx     1.36E+02     0     1
Kx12     log     factor     1.00E+00     1.00E-08     1.00E+03     Kx     1.00E-04     0     1
Kx13     log     factor     1.00E+00     1.00E-08     1.00E+03     Kx     7.00E+01     0     1
Kx14     log     factor     1.00E+00     1.00E-08     1.00E+03     Kx     1.00E-06     0     1
Kx15     log     factor     1.00E+00     1.00E-08     1.00E+03     Kx     7.50E+01     0     1
Kx16     log     factor     1.00E+00     1.00E-08     1.00E+03     Kx     1.00E-06     0     1
Kx17     log     factor     1.00E+00     1.00E-08     1.00E+03     Kx     2.00E+01     0     1
Kx18     log     factor     1.00E+01     1.00E-08     1.00E+03     Kx     1.00E-06     0     1
Kx19     log     factor     1.00E+00     1.00E-08     1.00E+03     Kx     9.80E+01     0     1
Kx20     log     factor     1.00E+00     1.00E-08     1.00E+03     Kx     1.00E-06     0     1
Kx21     log     factor     1.00E+00     1.00E-08     1.00E+03     Kx     2.20E+01     0     1
Kx22     log     factor     1.00E+00     1.00E-08     1.00E+03     Kx     1.00E-06     0     1
Kx23     log     factor     1.00E+00     1.00E-08     1.00E+03     Kx     1.00E+02     0     1
Kx24     log     factor     1.00E+00     1.00E-08     1.00E+03     Kx     1.00E-06     0     1
Kx25     log     factor     1.00E+00     1.00E-08     1.00E+03     Kx     5.00E+01     0     1
Kx26     log     factor     1.00E+00     1.00E-08     1.00E+03     Kx     1.00E-06     0     1
Kx28     log     factor     1.00E+00     1.00E-08     1.00E+03     Kx     1.00E-04     0     1
Kx38     log     factor     1.00E+00     1.00E-08     1.00E+03     Kx     5.00E+01     0     1
Kx39     log     factor     1.00E+00     1.00E-08     1.00E+03     Kx     5.00E+01     0     1
Kx40     fixed     factor     1.00E+00     1.00E-08     1.00E+03     Kx     1.00E+03     0     1
Kx41     fixed     factor     1.00E+00     1.00E-08     1.00E+03     Kx     3.00E+01     0     1
Kx48     log     factor     1.00E+00     1.00E-08     1.00E+03     Kx     5.00E+01     0     1
Kx49     log     factor     1.00E+00     1.00E-08     1.00E+03     Kx     5.00E+01     0     1
Kx51     log     factor     1.00E+00     1.00e-08     1.00e+03    Kx      1.500000e+002   0.0 1
Kx52     log     factor     1.00E+00     1.00E-08     1.00E+03     Kx     1.00E-01     0     1
Kx53     log     factor     1.00E+00     1.00E-08     1.00E+03     Kx     1.50E+02     0     1
Kx54     log     factor     1.00E+00     1.00E-08     1.00E+03     Kx     1.00E-01     0     1
Kx55     log     factor     1.00E+00     1.00E-08     1.00E+03     Kx     1.50E+02     0     1
Kx56     log     factor     1.00E+00     1.00E-08     1.00E+03     Kx     1.00E-01     0     1
Kx57     log     factor     1.00E+00     1.00E-08     1.00E+03     Kx     1.94E+02     0     1
Kx58     log     factor     1.00E+00     1.00E-08     1.00E+03     Kx     1.00E-01     0     1
Kx59     log     factor     1.00E+00     1.00E-08     1.00E+03     Kx     5.40E+01     0     1
Kx60     log     factor     1.00E+00     1.00E-08     1.00E+03     Kx     1.00E-01     0     1
Kx61     log     factor     1.00E+00     1.00E-08     1.00E+03     Kx     1.36E+02     0     1
Kx62     log     factor     1.00E+00     1.00E-08     1.00E+03     Kx     1.00E-04     0     1
Kx63     log     factor     1.00E+00     1.00E-08     1.00E+03     Kx     7.00E+01     0     1
Kx64     log     factor     1.00E+00     1.00E-08     1.00E+03     Kx     1.00E-06     0     1
Kx65     log     factor     1.00E+00     1.00E-08     1.00E+03     Kx     7.50E+01     0     1
Kx66     log     factor     1.00E+00     1.00E-08     1.00E+03     Kx     1.00E-06     0     1
Kx67     log     factor     1.00E+00     1.00E-08     1.00E+03     Kx     2.00E+01     0     1
Kx68     log     factor     1.00E+00     1.00E-08     1.00E+03     Kx     1.00E-06     0     1
Kx69     log     factor     1.00E+00     1.00E-08     1.00E+03     Kx     9.80E+01     0     1
Kx78     log     factor     1.00E+00     1.00E-08     1.00E+03     Kx     1.00E-01     0     1
Kx84     log     factor     1.00E+00     1.00E-08     1.00E+03     Kx     1.00E-06     0     1
Kx85     log     factor     1.00E+00     1.00E-08     1.00E+03     Kx     7.50E+01     0     1
Kx86     log     factor     1.00E+00     1.00E-08     1.00E+03     Kx     1.00E-06     0     1
Kx87     log     factor     1.00E+00     1.00E-08     1.00E+03     Kx     2.00E+01     0     1
Kx95     log     factor     1.00E+00     1.00E-08     1.00E+03     Kx     1.00E-01     0     1
Kz1     log     factor     1.00E+00     1.00E-08     1.00E+03     Kz     1.50E+01     0     1
Kz2     log     factor     1.00E+00     1.00E-08     1.00E+03     Kz     1.00E-01     0     1
Kz3     log     factor     1.00E+00     1.00E-08     1.00E+03     Kz     1.50E+01     0     1
Kz4     log     factor     1.00E+00     1.00E-08     1.00E+03     Kz     1.00E-01     0     1
Kz5     log     factor     1.00E+00     1.00E-08     1.00E+03     Kz     1.50E+01     0     1
Kz6     log     factor     1.00E+00     1.00E-08     1.00E+03     Kz     1.00E-01     0     1
Kz7     log     factor     1.00E+00     1.00E-08     1.00E+03     Kz     4.00E+01     0     1
Kz8     log     factor     1.00E+00     1.00E-08     1.00E+03     Kz     1.00E-01     0     1
Kz9     log     factor     1.00E+00     1.00E-08     1.00E+03     Kz     5.00E+00     0     1
Kz10     log     factor     1.00E+00     1.00E-08     1.00E+03     Kz     1.00E-01     0     1
Kz11     log     factor     1.00E+00     1.00E-08     1.00E+03     Kz     1.50E+01     0     1
Kz12     log     factor     1.00E+00     1.00E-08     1.00E+03     Kz     1.00E-04     0     1
Kz13     log     factor     1.00E+00     1.00E-08     1.00E+03     Kz     7.00E+00     0     1
Kz14     log     factor     1.00E+00     1.00E-08     1.00E+03     Kz     1.00E-06     0     1
Kz15     log     factor     1.00E+00     1.00E-08     1.00E+03     Kz     7.50E+00     0     1
Kz16     log     factor     1.00E+00     1.00E-08     1.00E+03     Kz     1.00E-06     0     1
Kz17     log     factor     1.00E+00     1.00E-08     1.00E+03     Kz     2.00E-01     0     1
Kz18     log     factor     1.00E+01     1.00E-08     1.00E+03     Kz     1.00E-06     0     1
Kz19     log     factor     1.00E+00     1.00E-08     1.00E+03     Kz     1.00E+01     0     1
Kz20     log     factor     1.00E+00     1.00E-08     1.00E+03     Kz     1.00E-06     0     1
Kz21     log     factor     1.00E+00     1.00E-08     1.00E+03     Kz     2.00E-01     0     1
Kz22     log     factor     1.00E+00     1.00E-08     1.00E+03     Kz     1.00E-06     0     1
Kz23     log     factor     1.00E+00     1.00E-08     1.00E+03     Kz     1.00E+01     0     1
Kz24     log     factor     1.00E+00     1.00E-08     1.00E+03     Kz     1.00E-06     0     1
Kz25     log     factor     1.00E+00     1.00E-08     1.00E+03     Kz     5.00E+00     0     1
Kz26     log     factor     1.00E+00     1.00E-08     1.00E+03     Kz     1.00E-06     0     1
Kz28     log     factor     1.00E+00     1.00E-08     1.00E+03     Kz     1.00E-04     0     1
Kz38     log     factor     1.00E+00     1.00E-08     1.00E+03     Kz     5.00E-01     0     1
Kz39     log     factor     1.00E+00     1.00E-08     1.00E+03     Kz     5.00E-01     0     1
Kz40     fixed     factor     1.00E+00     1.00E-08     1.00E+03     Kz     1.00E+03     0     1
Kz41     fixed     factor     1.00E+00     1.00E-08     1.00E+03     Kz     1.00E+01     0     1
Kz48     log     factor     1.00E+00     1.00E-08     1.00E+03     Kz     5.00E-01     0     1
Kz49     log     factor     1.00E+00     1.00E-08     1.00E+03     Kz     5.00E-01     0     1
Kz51     log     factor     1.00E+00     1.00e-08     1.00e+03     Kz   1.500000e+001   0.0 1
Kz52     log     factor     1.00E+00     1.00E-08     1.00E+03     Kz     1.00E-01     0     1
Kz53     log     factor     1.00E+00     1.00E-08     1.00E+03     Kz     1.50E+01     0     1
Kz54     log     factor     1.00E+00     1.00E-08     1.00E+03     Kz     1.00E-01     0     1
Kz55     log     factor     1.00E+00     1.00E-08     1.00E+03     Kz     1.50E+01     0     1
Kz56     log     factor     1.00E+00     1.00E-08     1.00E+03     Kz     1.00E-01     0     1
Kz57     log     factor     1.00E+00     1.00E-08     1.00E+03     Kz     4.00E+01     0     1
Kz58     log     factor     1.00E+00     1.00E-08     1.00E+03     Kz     1.00E-01     0     1
Kz59     log     factor     1.00E+00     1.00E-08     1.00E+03     Kz     5.00E+00     0     1
Kz60     log     factor     1.00E+00     1.00E-08     1.00E+03     Kz     1.00E-01     0     1
Kz61     log     factor     1.00E+00     1.00E-08     1.00E+03     Kz     1.50E+01     0     1
Kz62     log     factor     1.00E+00     1.00E-08     1.00E+03     Kz     1.00E-04     0     1
Kz63     log     factor     1.00E+00     1.00E-08     1.00E+03     Kz     7.00E+00     0     1
Kz64     log     factor     1.00E+00     1.00E-08     1.00E+03     Kz     1.00E-06     0     1
Kz65     log     factor     1.00E+00     1.00E-08     1.00E+03     Kz     7.50E+00     0     1
Kz66     log     factor     1.00E+00     1.00E-08     1.00E+03     Kz     1.00E-06     0     1
Kz67     log     factor     1.00E+00     1.00E-08     1.00E+03     Kz     2.00E-01     0     1
Kz68     log     factor     1.00E+00     1.00E-08     1.00E+03     Kz     1.00E-06     0     1
Kz69     log     factor     1.00E+00     1.00E-08     1.00E+03     Kz     1.00E+01     0     1
Kz78     log     factor     1.00E+00     1.00E-08     1.00E+03     Kz     1.00E-01     0     1
Kz84     log     factor     1.00E+00     1.00E-08     1.00E+03     Kz     1.00E-06     0     1
Kz85     log     factor     1.00E+00     1.00E-08     1.00E+03     Kz     7.50E+00     0     1
Kz86     log     factor     1.00E+00     1.00E-08     1.00E+03     Kz     1.00E-06     0     1
Kz87     log     factor     1.00E+00     1.00E-08     1.00E+03     Kz     2.00E-01     0     1
Kz95     log     factor     1.00E+00     1.00E-08     1.00E+03     Kz     1.00E-01     0     1
Ss1     log     factor     1.00E+00     1.00E-03     1.00E+03     Stor     1.00E-05     0     1
Ss2     log     factor     1.00E+00     2.00E-02     2.00E+04     Stor     5.00E-07     0     1
Ss3     log     factor     1.00E+00     1.00E-03     1.00E+03     Stor     1.00E-05     0     1
Ss4     log     factor     1.00E+00     2.00E-02     2.00E+04     Stor     5.00E-07     0     1
Ss5     log     factor     1.00E+00     1.00E-03     1.00E+03     Stor     1.00E-05     0     1
Ss6     log     factor     1.00E+00     2.00E-02     2.00E+04     Stor     5.00E-07     0     1
Ss7     log     factor     1.00E+00     1.00E-03     1.00E+03     Stor     1.00E-05     0     1
Ss8     log     factor     1.00E+00     2.00E-02     2.00E+04     Stor     5.00E-07     0     1
Ss9     log     factor     1.00E+00     1.00E-03     1.00E+03     Stor     1.00E-05     0     1
Ss10     log     factor     1.00E+00     2.00E-02     2.00E+04     Stor     5.00E-07     0     1
Ss11     log     factor     1.00E+00     1.00E-03     1.00E+03     Stor     1.00E-05     0     1
Ss12     log     factor     1.00E+00     2.00E-02     2.00E+04     Stor     5.00E-07     0     1
Ss13     log     factor     1.00E+00     1.00E-03     1.00E+03     Stor     1.00E-05     0     1
Ss14     log     factor     1.00E+00     2.00E-02     2.00E+04     Stor     5.00E-07     0     1
Ss15     log     factor     1.00E+00     1.00E-03     1.00E+03     Stor     1.00E-05     0     1
Ss16     log     factor     1.00E+00     2.00E-02     2.00E+04     Stor     5.00E-07     0     1
Ss17     log     factor     1.00E+00     1.00E-03     1.00E+03     Stor     1.00E-05     0     1
Ss18     log     factor     1.00E+00     2.00E-02     2.00E+04     Stor     5.00E-07     0     1
Ss19     log     factor     1.00E+00     1.00E-03     1.00E+03     Stor     1.00E-05     0     1
Ss20     log     factor     1.00E+00     2.00E-02     2.00E+04     Stor     5.00E-07     0     1
Ss21     log     factor     1.00E+00     1.00E-03     1.00E+03     Stor     1.00E-05     0     1
Ss22     log     factor     1.00E+00     2.00E-02     2.00E+04     Stor     5.00E-07     0     1
Ss23     log     factor     1.00E+00     1.00E-03     1.00E+03     Stor     1.00E-05     0     1
Ss24     log     factor     1.00E+00     2.00E-02     2.00E+04     Stor     5.00E-07     0     1
Ss25     log     factor     1.00E+00     1.00E-03     1.00E+03     Stor     1.00E-05     0     1
Ss26     log     factor     1.00E+00     2.00E-02     2.00E+04     Stor     5.00E-07     0     1
Ss28     log     factor     1.00E+00     1.00E-03     1.00E+03     Stor     1.00E-05     0     1
Ss38     log     factor     1.00E+00     1.00E-03     1.00E+03     Stor     1.00E-05     0     1
Ss39     log     factor     1.00E+00     1.00E-03     1.00E+03     Stor     1.00E-05     0     1
Ss40     fixed     factor     1.00E+00     4.00E-08     4.00E+02     Stor     2.50E-01     0     1
Ss41     fixed     factor     1.00E+00     4.00E-08     4.00E+02     Stor     2.50E-01     0     1
Ss48     log     factor     1.00E+00     1.00E-03     1.00E+03     Stor     1.00E-05     0     1
Ss49     log     factor     1.00E+00     1.00E-03     1.00E+03     Stor     1.00E-05     0     1
Ss51     log     factor     1.00E+00     1.00e-03     1.00E+03    Stor   1.00E-05   0.0 1
Ss52     log     factor     1.00E+00     1.00E-01     1.00E+05     Stor     1.00E-07     0     1
Ss53     log     factor     1.00E+00     1.00E-03     1.00E+03     Stor     1.00E-05     0     1
Ss54     log     factor     1.00E+00     1.00E-01     1.00E+05     Stor     1.00E-07     0     1
Ss55     log     factor     1.00E+00     1.00E-03     1.00E+03     Stor     1.00E-05     0     1
Ss56     log     factor     1.00E+00     1.00E-01     1.00E+05     Stor     1.00E-07     0     1
Ss57     log     factor     1.00E+00     1.00E-03     1.00E+03     Stor     1.00E-05     0     1
Ss58     log     factor     1.00E+00     1.00E-01     1.00E+05     Stor     1.00E-07     0     1
Ss59     log     factor     1.00E+00     1.00E-03     1.00E+03     Stor     1.00E-05     0     1
Ss60     log     factor     1.00E+00     1.00E-01     1.00E+05     Stor     1.00E-07     0     1
Ss61     log     factor     1.00E+00     1.00E-03     1.00E+03     Stor     1.00E-05     0     1
Ss62     log     factor     1.00E+00     1.00E-01     1.00E+05     Stor     1.00E-07     0     1
Ss63     log     factor     1.00E+00     1.00E-03     1.00E+03     Stor     1.00E-05     0     1
Ss64     log     factor     1.00E+00     1.00E-01     1.00E+05     Stor     1.00E-07     0     1
Ss65     log     factor     1.00E+00     1.00E-03     1.00E+03     Stor     1.00E-05     0     1
Ss66     log     factor     1.00E+00     1.00E-01     1.00E+05     Stor     1.00E-07     0     1
Ss67     log     factor     1.00E+00     1.00E-03     1.00E+03     Stor     1.00E-05     0     1
Ss68     log     factor     1.00E+00     1.00E-01     1.00E+05     Stor     1.00E-07     0     1
Ss69     log     factor     1.00E+00     1.00E-03     1.00E+03     Stor     1.00E-05     0     1
Ss78     log     factor     1.00E+00     1.00E-01     1.00E+05     Stor     1.00E-07     0     1
Ss84     log     factor     1.00E+00     1.00E-01     1.00E+05     Stor     1.00E-07     0     1
Ss85     log     factor     1.00E+00     1.00E-03     1.00E+03     Stor     1.00E-05     0     1
Ss86     log     factor     1.00E+00     1.00E-01     1.00E+05     Stor     1.00E-07     0     1
Ss87     log     factor     1.00E+00     1.00E-03     1.00E+03     Stor     1.00E-05     0     1
Ss95     log     factor     1.00E+00     2.00E-02     2.00E+04     Stor     5.00E-07     0     1
Sy1     log     factor     1.00E+00     4.00E-01     4.00E+00     Stor     2.50E-01     0     1
Sy2     log     factor     1.00E+00     2.00E-01     2.00E+00     Stor     5.00E-01     0     1
Sy3     log     factor     1.00E+00     4.00E-01     4.00E+00     Stor     2.50E-01     0     1
Sy4     log     factor     1.00E+00     2.00E-01     2.00E+00     Stor     5.00E-01     0     1
Sy5     log     factor     1.00E+00     4.00E-01     4.00E+00     Stor     2.50E-01     0     1
Sy6     log     factor     1.00E+00     2.00E-01     2.00E+00     Stor     5.00E-01     0     1
Sy7     log     factor     1.00E+00     4.00E-01     4.00E+00     Stor     2.50E-01     0     1
Sy8     log     factor     1.00E+00     2.00E-01     2.00E+00     Stor     5.00E-01     0     1
Sy9     log     factor     1.00E+00     4.00E-01     4.00E+00     Stor     2.50E-01     0     1
Sy10     log     factor     1.00E+00     2.00E-01     2.00E+00     Stor     5.00E-01     0     1
Sy11     log     factor     1.00E+00     4.00E-01     4.00E+00     Stor     2.50E-01     0     1
Sy12     log     factor     1.00E+00     2.00E-01     2.00E+00     Stor     5.00E-01     0     1
Sy13     log     factor     1.00E+00     4.00E-01     4.00E+00     Stor     2.50E-01     0     1
Sy14     log     factor     1.00E+00     2.00E-01     2.00E+00     Stor     5.00E-01     0     1
Sy15     log     factor     1.00E+00     4.00E-01     4.00E+00     Stor     2.50E-01     0     1
Sy16     log     factor     1.00E+00     2.00E-01     2.00E+00     Stor     5.00E-01     0     1
Sy17     log     factor     1.00E+00     4.00E-01     4.00E+00     Stor     2.50E-01     0     1
Sy18     log     factor     1.00E+00     2.00E-01     2.00E+00     Stor     5.00E-01     0     1
Sy19     log     factor     1.00E+00     4.00E-01     4.00E+00     Stor     2.50E-01     0     1
Sy20     log     factor     1.00E+00     2.00E-01     2.00E+00     Stor     5.00E-01     0     1
Sy21     log     factor     1.00E+00     4.00E-01     4.00E+00     Stor     2.50E-01     0     1
Sy22     log     factor     1.00E+00     2.00E-01     2.00E+00     Stor     5.00E-01     0     1
Sy23     log     factor     1.00E+00     4.00E-01     4.00E+00     Stor     2.50E-01     0     1
Sy24     log     factor     1.00E+00     2.00E-01     2.00E+00     Stor     5.00E-01     0     1
Sy25     log     factor     1.00E+00     4.00E-01     4.00E+00     Stor     2.50E-01     0     1
Sy26     log     factor     1.00E+00     2.00E-01     2.00E+00     Stor     5.00E-01     0     1
Sy28     log     factor     1.00E+00     2.00E-01     2.00E+00     Stor     5.00E-01     0     1
Sy38     log     factor     1.00E+00     4.00E-01     4.00E+00     Stor     2.50E-01     0     1
Sy39     log     factor     1.00E+00     4.00E-01     4.00E+00     Stor     2.50E-01     0     1
Sy40     fixed     factor     1.00E+00     4.00E-01     4.00E+00     Stor     2.50E-01     0     1
Sy41     fixed     factor     1.00E+00     4.00E-01     4.00E+00     Stor     2.50E-01     0     1
Sy48     log     factor     1.00E+00     4.00E-01     4.00E+00     Stor     2.50E-01     0     1
Sy49     log     factor     1.00E+00     4.00E-01     4.00E+00     Stor     2.50E-01     0     1
Sy51     log     factor     1.00E+00     2.00E-01     2.00E+00     Stor     2.50e-01     0     1
Sy52     log     factor     1.00E+00     2.00E-01     2.00E+00     Stor     5.00E-01     0     1
Sy53     log     factor     1.00E+00     4.00E-01     4.00E+00     Stor     2.50E-01     0     1
Sy54     log     factor     1.00E+00     2.00E-01     2.00E+00     Stor     5.00E-01     0     1
Sy55     log     factor     1.00E+00     4.00E-01     4.00E+00     Stor     2.50E-01     0     1
Sy56     log     factor     1.00E+00     2.00E-01     2.00E+00     Stor     5.00E-01     0     1
Sy57     log     factor     1.00E+00     4.00E-01     4.00E+00     Stor     2.50E-01     0     1
Sy58     log     factor     1.00E+00     2.00E-01     2.00E+00     Stor     5.00E-01     0     1
Sy59     log     factor     1.00E+00     4.00E-01     4.00E+00     Stor     2.50E-01     0     1
Sy60     log     factor     1.00E+00     2.00E-01     2.00E+00     Stor     5.00E-01     0     1
Sy61     log     factor     1.00E+00     4.00E-01     4.00E+00     Stor     2.50E-01     0     1
Sy62     log     factor     1.00E+00     2.00E-01     2.00E+00     Stor     5.00E-01     0     1
Sy63     log     factor     1.00E+00     4.00E-01     4.00E+00     Stor     2.50E-01     0     1
Sy64     log     factor     1.00E+00     2.00E-01     2.00E+00     Stor     5.00E-01     0     1
Sy65     log     factor     1.00E+00     4.00E-01     4.00E+00     Stor     2.50E-01     0     1
Sy66     log     factor     1.00E+00     2.00E-01     2.00E+00     Stor     5.00E-01     0     1
Sy67     log     factor     1.00E+00     4.00E-01     4.00E+00     Stor     2.50E-01     0     1
Sy68     log     factor     1.00E+00     2.00E-01     2.00E+00     Stor     5.00E-01     0     1
Sy69     log     factor     1.00E+00     4.00E-01     4.00E+00     Stor     2.50E-01     0     1
Sy78     log     factor     1.00E+00     2.00E-01     2.00E+00     Stor     5.00E-01     0     1
Sy84     log     factor     1.00E+00     2.00E-01     2.00E+00     Stor     5.00E-01     0     1
Sy85     log     factor     1.00E+00     4.00E-01     4.00E+00     Stor     2.50E-01     0     1
Sy86     log     factor     1.00E+00     2.00E-01     2.00E+00     Stor     5.00E-01     0     1
Sy87     log     factor     1.00E+00     4.00E-01     4.00E+00     Stor     2.50E-01     0     1
Sy95     log     factor     1.00E+00     2.00E-01     2.00E+00     Stor     5.00E-01     0     1
rm1    log    factor    1.0000000E+00    1.0000000E-01    2.0000000E+00    Rch    1.0000000E+00    0    1
rm2    log    factor    1.0000000E+00    1.0000000E-01    2.0000000E+00    Rch    1.0000000E+00    0    1
rm3    log    factor    1.0000000E+00    1.0000000E-01    2.0000000E+00    Rch    1.0000000E+00    0    1
rm4    log    factor    1.0000000E+00    1.0000000E-01    2.0000000E+00    Rch    1.0000000E+00    0    1
rm5    log    factor    1.0000000E+00    1.0000000E-01    2.0000000E+00    Rch    1.0000000E+00    0    1
rm6    log    factor    1.0000000E+00    1.0000000E-01    2.0000000E+00    Rch    1.0000000E+00    0    1
rm7    log    factor    1.0000000E+00    1.0000000E-01    2.0000000E+00    Rch    1.0000000E+00    0    1
rm8    log    factor    1.0000000E+00    1.0000000E-01    2.0000000E+00    Rch    1.0000000E+00    0    1
rm9    log    factor    1.0000000E+00    1.0000000E-01    2.0000000E+00    Rch    1.0000000E+00    0    1
rm10    log    factor    1.0000000E+00    1.0000000E-01    2.0000000E+00    Rch    1.0000000E+00    0    1
rm11    log    factor    1.0000000E+00    1.0000000E-01    2.0000000E+00    Rch    1.0000000E+00    0    1
rm12    log    factor    1.0000000E+00    1.0000000E-01    2.0000000E+00    Rch    1.0000000E+00    0    1
rm13    log    factor    1.0000000E+00    1.0000000E-01    2.0000000E+00    Rch    1.0000000E+00    0    1
rm14    log    factor    1.0000000E+00    1.0000000E-01    2.0000000E+00    Rch    1.0000000E+00    0    1
rm15    log    factor    1.0000000E+00    1.0000000E-01    2.0000000E+00    Rch    1.0000000E+00    0    1
rm16    log    factor    1.0000000E+00    1.0000000E-01    2.0000000E+00    Rch    1.0000000E+00    0    1
rm17    log    factor    1.0000000E+00    1.0000000E-01    2.0000000E+00    Rch    1.0000000E+00    0    1
rm18    log    factor    1.0000000E+00    1.0000000E-01    2.0000000E+00    Rch    1.0000000E+00    0    1
rm19    log    factor    1.0000000E+00    1.0000000E-01    2.0000000E+00    Rch    1.0000000E+00    0    1
rm20    log    factor    1.0000000E+00    1.0000000E-01    2.0000000E+00    Rch    1.0000000E+00    0    1
rm21    log    factor    1.0000000E+00    1.0000000E-01    2.0000000E+00    Rch    1.0000000E+00    0    1
rm22    log    factor    1.0000000E+00    1.0000000E-01    2.0000000E+00    Rch    1.0000000E+00    0    1
rm23    log    factor    1.0000000E+00    1.0000000E-01    2.0000000E+00    Rch    1.0000000E+00    0    1
rm24    log    factor    1.0000000E+00    1.0000000E-01    2.0000000E+00    Rch    1.0000000E+00    0    1
rm25    log    factor    1.0000000E+00    1.0000000E-01    2.0000000E+00    Rch    1.0000000E+00    0    1
rm26    log    factor    1.0000000E+00    1.0000000E-01    2.0000000E+00    Rch    1.0000000E+00    0    1
rm27    log    factor    1.0000000E+00    1.0000000E-01    2.0000000E+00    Rch    1.0000000E+00    0    1
rm28    log    factor    1.0000000E+00    1.0000000E-01    2.0000000E+00    Rch    1.0000000E+00    0    1
rm29    log    factor    1.0000000E+00    1.0000000E-01    2.0000000E+00    Rch    1.0000000E+00    0    1
rm30    log    factor    1.0000000E+00    1.0000000E-01    2.0000000E+00    Rch    1.0000000E+00    0    1
rm31    log    factor    1.0000000E+00    1.0000000E-01    2.0000000E+00    Rch    1.0000000E+00    0    1
rm32    log    factor    1.0000000E+00    1.0000000E-01    2.0000000E+00    Rch    1.0000000E+00    0    1
rm33    log    factor    1.0000000E+00    1.0000000E-01    2.0000000E+00    Rch    1.0000000E+00    0    1
rm34    log    factor    1.0000000E+00    1.0000000E-01    2.0000000E+00    Rch    1.0000000E+00    0    1
rm35    log    factor    1.0000000E+00    1.0000000E-01    2.0000000E+00    Rch    1.0000000E+00    0    1
* observation groups
Q_NHD
Q_NWIS
A1
B1
C1
D1
Z
A1d
B1d
C1d
D1d
Zd
* observation data
50929nhd    29.21    1.027047E-03    q_nhd
52942nhd    30.68    9.776910E-04    q_nhd
47418nhd    10.40    2.884560E-03    q_nhd
43422nhd    20.48    1.465158E-03    q_nhd
37360nhd    33.13    9.054090E-04    q_nhd
36361nhd    42.73    7.021050E-04    q_nhd
32864nhd    21.32    1.407282E-03    q_nhd
30359nhd    177.35    1.691610E-04    q_nhd
27860nhd    40.06    7.488870E-04    q_nhd
26845nhd    158.33    1.894710E-04    q_nhd
41352nhd    82.55    3.634320E-04    q_nhd
41848nhd    47.75    6.282750E-04    q_nhd
45336nhd    59.96    5.003490E-04    q_nhd
44313nhd    201.30    1.490280E-04    q_nhd
41807nhd    85.03    3.528240E-04    q_nhd
26835nhd    154.24    1.944990E-04    q_nhd
29832nhd    30.64    9.789990E-04    q_nhd
28828nhd    17.63    1.701654E-03    q_nhd
28826nhd    59.66    5.028810E-04    q_nhd
27304nhd    94.84    3.163380E-04    q_nhd
27798nhd    56.35    5.324100E-04    q_nhd
25791nhd    66.71    4.497090E-04    q_nhd
24288nhd    46.86    6.401730E-04    q_nhd
20777nhd    70.34    4.264800E-04    q_nhd
38281nhd    323.09    9.285300E-05    q_nhd
40283nhd    41.41    7.244190E-04    q_nhd
47276nhd    48.87    6.138810E-04    q_nhd
29261nhd    78.75    3.809640E-04    q_nhd
31256nhd    32.80    9.146460E-04    q_nhd
34252nhd    44.14    6.796440E-04    q_nhd
38243nhd    26.89    1.115589E-03    q_nhd
38742nhd    19.75    1.519002E-03    q_nhd
41245nhd    63.15    4.750440E-04    q_nhd
14242nhd    22.56    1.329516E-03    q_nhd
12241nhd    11.34    2.646273E-03    q_nhd
10736nhd    6.62    4.534257E-03    q_nhd
10226nhd    14.44    2.078253E-03    q_nhd
8221nhd    14.87    2.017959E-03    q_nhd
8718nhd    63.43    4.729560E-04    q_nhd
16195nhd    201.57    1.488300E-04    q_nhd
20188nhd    24.56    1.221543E-03    q_nhd
15763nhd    26.14    1.147632E-03    q_nhd
17265nhd    16.27    1.843362E-03    q_nhd
18266nhd    19.10    1.571091E-03    q_nhd
24747nhd    112.02    2.678100E-04    q_nhd
24743nhd    30.56    9.816960E-04    q_nhd
30226nhd    117.69    2.549160E-04    q_nhd
32234nhd    161.53    1.857300E-04    q_nhd
33230nhd    20.38    1.471821E-03    q_nhd
38720nhd    183.64    1.633650E-04    q_nhd
43725nhd    150.34    1.995450E-04    q_nhd
45224nhd    67.55    4.441170E-04    q_nhd
49708nhd    45.07    6.656940E-04    q_nhd
58208nhd    211.53    1.418220E-04    q_nhd
9692nhd    118.18    2.538540E-04    q_nhd
9672nhd    21.66    1.385175E-03    q_nhd