pcf
* control data
restart estimation
194  15110  6  0  7
5  3  single  point  1  0  0
1.000000e+001  -3.000000e+000  3.000000e-001  1.000000e-002  -12 999 lamforgive derforgive
1.000000e+001  1.000000e+001  1.000000e-003
1.000000e-001 1 noaui noboundscale
30  1.000000e-002  3  3  1.000000e-002  3 0 0
0  0  0   PARSAVEITN
* singular value decomposition
     1
    150  5.0000000E-07
     0
* parameter groups
Kx     relative   1.000000e-002  0.000000e+000  switch  2.000000e+000  parabolic
Kz     relative   1.000000e-002  0.000000e+000  switch  2.000000e+000  parabolic
Stor   relative   1.000000e-002  0.000000e+000  switch  2.000000e+000  parabolic
Rch    relative   1.000000e-002  0.000000e+000  switch  2.000000e+000  parabolic
BCCond    relative   1.000000e-002  0.000000e+000  switch  2.000000e+000  parabolic
Shead    relative   1.000000e-002  0.000000e+000  switch  2.000000e+000  parabolic
* parameter data
GHBCond    fixed    factor    1.0000000E+00    1.0000000E-05    1.0000000E+04    BCCond    6.0000000E+05    0    1
RIVCond    fixed    factor    1.0000000E+00    1.0000000E-05    1.0000000E+04    BCCond    6.0000000E+05    0    1
SHM1    fixed    factor    1.0000000E+00    1.0000000E-05    1.0000000E+04    Shead    1.0000000E+00    0    1
SHM2    fixed    factor    1.0000000E+00    1.0000000E-05    1.0000000E+04    Shead    1.0000000E+00    0    1
SHM3    fixed    factor    1.0000000E+00    1.0000000E-05    1.0000000E+04    Shead    1.0000000E+00    0    1
SHM4    fixed    factor    1.0000000E+00    1.0000000E-05    1.0000000E+04    Shead    1.0000000E+00    0    1
SHM5    fixed    factor    1.0000000E+00    1.0000000E-05    1.0000000E+04    Shead    1.0000000E+00    0    1
SHM6    fixed    factor    1.0000000E+00    1.0000000E-05    1.0000000E+04    Shead    1.0000000E+00    0    1
SHM7    fixed    factor    1.0000000E+00    1.0000000E-05    1.0000000E+04    Shead    1.0000000E+00    0    1
SHM8    fixed    factor    1.0000000E+00    1.0000000E-05    1.0000000E+04    Shead    1.0000000E+00    0    1
SHM9    fixed    factor    1.0000000E+00    1.0000000E-05    1.0000000E+04    Shead    1.0000000E+00    0    1
SHM10    fixed    factor    1.0000000E+00    1.0000000E-05    1.0000000E+04    Shead    1.0000000E+00    0    1
SHM11    fixed    factor    1.0000000E+00    1.0000000E-05    1.0000000E+04    Shead    1.0000000E+00    0    1
SHM12    fixed    factor    1.0000000E+00    1.0000000E-05    1.0000000E+04    Shead    1.0000000E+00    0    1
SHM13    fixed    factor    1.0000000E+00    1.0000000E-05    1.0000000E+04    Shead    1.0000000E+00    0    1
SHM14    fixed    factor    1.0000000E+00    1.0000000E-05    1.0000000E+04    Shead    1.0000000E+00    0    1
SHM15    fixed    factor    1.0000000E+00    1.0000000E-05    1.0000000E+04    Shead    1.0000000E+00    0    1
SHM16    fixed    factor    1.0000000E+00    1.0000000E-05    1.0000000E+04    Shead    1.0000000E+00    0    1
SHM17    fixed    factor    1.0000000E+00    1.0000000E-05    1.0000000E+04    Shead    1.0000000E+00    0    1
SHM18    fixed    factor    1.0000000E+00    1.0000000E-05    1.0000000E+04    Shead    1.0000000E+00    0    1
SHM19    fixed    factor    1.0000000E+00    1.0000000E-05    1.0000000E+04    Shead    1.0000000E+00    0    1
Kx1    log    factor    1.0000000E+00    1.0000000E-01    1.0000000E+03    Kx    1.5000000E+02    0    1
Kx2    log    factor    1.0000000E+00    1.0000000E-08    1.0000000E+03    Kx    1.0000000E-00    0    1
Kx3    log    factor    1.0000000E+00    1.0000000E-01    1.0000000E+03    Kx    1.5000000E+02    0    1
Kx4    log    factor    1.0000000E+00    1.0000000E-08    1.0000000E+03    Kx    1.0000000E-00    0    1
Kx5    log    factor    1.0000000E+00    1.0000000E-01    1.0000000E+03    Kx    1.5000000E+02    0    1
Kx6    log    factor    1.0000000E+00    1.0000000E-08    1.0000000E+03    Kx    1.0000000E-00    0    1
Kx7    log    factor    1.0000000E+00    1.0000000E-01    1.0000000E+03    Kx    1.9400000E+02    0    1
Kx8    log    factor    1.0000000E+00    1.0000000E-08    1.0000000E+03    Kx    1.0000000E-00    0    1
Kx9    log    factor    1.0000000E+00    1.0000000E-01    1.0000000E+03    Kx    5.4000000E+01    0    1
Kx10    log    factor    1.0000000E+00    1.0000000E-08    1.0000000E+03    Kx    1.0000000E-00    0    1
Kx11    log    factor    1.0000000E+00    1.0000000E-01    1.0000000E+03    Kx    1.3600000E+02    0    1
Kx12    log    factor    1.0000000E+00    1.0000000E-08    1.0000000E+03    Kx    1.0000000E-02    0    1
Kx13    log    factor    1.0000000E+00    1.0000000E-01    1.0000000E+04    Kx    7.0000000E+01    0    1
Kx14    log    factor    1.0000000E+00    1.0000000E-08    1.0000000E+03    Kx    1.0000000E-04    0    1
Kx15    log    factor    1.0000000E+00    1.0000000E-01    1.0000000E+03    Kx    7.5000000E+01    0    1
Kx16    log    factor    1.0000000E+00    1.0000000E-08    1.0000000E+03    Kx    1.0000000E-06    0    1
Kx17    log    factor    1.0000000E+00    1.0000000E-01    1.0000000E+03    Kx    2.0000000E+01    0    1
Kx18    log    factor    1.0000000E+00    1.0000000E-08    1.0000000E+03    Kx    1.0000000E-06    0    1
Kx19    log    factor    1.0000000E+00    1.0000000E-01    1.0000000E+03    Kx    9.8000000E+01    0    1
Kx20    log    factor    1.0000000E+00    1.0000000E-08    1.0000000E+03    Kx    1.0000000E-06    0    1
Kx21    log    factor    1.0000000E+00    1.0000000E-01    1.0000000E+03    Kx    2.2000000E+01    0    1
Kx22    log    factor    1.0000000E+00    1.0000000E-08    1.0000000E+03    Kx    1.0000000E-06    0    1
Kx23    log    factor    1.0000000E+00    1.0000000E-01    1.0000000E+03    Kx    1.0000000E+02    0    1
Kx24    log    factor    1.0000000E+00    1.0000000E-08    1.0000000E+03    Kx    1.0000000E-06    0    1
Kx25    log    factor    1.0000000E+00    1.0000000E-01    1.0000000E+03    Kx    5.0000000E+01    0    1
Kx26    log    factor    1.0000000E+00    1.0000000E-08    1.0000000E+03    Kx    1.0000000E-06    0    1
Kx28    log    factor    1.0000000E+00    1.0000000E-08    1.0000000E+03    Kx    1.0000000E-04    0    1
Kx36    log    factor    1.0000000E+00    1.0000000E-08    1.0000000E+03    Kx    1.0000000E-01    0    1
Kx38    log    factor    1.0000000E+00    1.0000000E-01    1.0000000E+03    Kx    5.0000000E+01    0    1
Kx39    log    factor    1.0000000E+00    1.0000000E-01    1.0000000E+03    Kx    5.0000000E+01    0    1
Kx40    log    factor    1.0000000E+00    1.0000000E-01    1.0000000E+05    Kx    1.0000000E+03    0    1
Kx41    log    factor    1.0000000E+00    1.0000000E-01    1.0000000E+03    Kx    3.0000000E+01    0    1
Kx48    log    factor    1.0000000E+00    1.0000000E-01    1.0000000E+03    Kx    5.0000000E+01    0    1
Kx49    log    factor    1.0000000E+00    1.0000000E-01    1.0000000E+03    Kx    5.0000000E+01    0    1
Kx95    log    factor    1.0000000E+00    1.0000000E-08    1.0000000E+03    Kx    1.0000000E-01    0    1
Kz1    log    factor    1.0000000E+00    1.0000000E-02    1.0000000E+03    Kz    1.5000000E+01    0    1
Kz2    log    factor    1.0000000E+00    1.0000000E-08    1.0000000E+03    Kz    1.0000000E-00    0    1
Kz3    log    factor    1.0000000E+00    1.0000000E-02    1.0000000E+03    Kz    1.5000000E+01    0    1
Kz4    log    factor    1.0000000E+00    1.0000000E-08    1.0000000E+03    Kz    1.0000000E-00    0    1
Kz5    log    factor    1.0000000E+00    1.0000000E-02    1.0000000E+03    Kz    1.5000000E+01    0    1
Kz6    log    factor    1.0000000E+00    1.0000000E-08    1.0000000E+03    Kz    1.0000000E-00    0    1
Kz7    log    factor    1.0000000E+00    1.0000000E-02    1.0000000E+03    Kz    4.0000000E+01    0    1
Kz8    log    factor    1.0000000E+00    1.0000000E-08    1.0000000E+03    Kz    1.0000000E-00    0    1
Kz9    log    factor    1.0000000E+00    1.0000000E-02    1.0000000E+03    Kz    5.0000000E+00    0    1
Kz10    log    factor    1.0000000E+00    1.0000000E-08    1.0000000E+03    Kz    1.0000000E-00    0    1
Kz11    log    factor    1.0000000E+00    1.0000000E-02    1.0000000E+03    Kz    1.5000000E+01    0    1
Kz12    log    factor    1.0000000E+00    1.0000000E-08    1.0000000E+03    Kz    1.0000000E-02    0    1
Kz13    log    factor    1.0000000E+00    1.0000000E-02    1.0000000E+03    Kz    7.0000000E+00    0    1
Kz14    log    factor    1.0000000E+00    1.0000000E-08    1.0000000E+03    Kz    1.0000000E-04    0    1
Kz15    log    factor    1.0000000E+00    1.0000000E-02    1.0000000E+03    Kz    7.5000000E-01    0    1
Kz16    log    factor    1.0000000E+00    1.0000000E-08    1.0000000E+03    Kz    1.0000000E-06    0    1
Kz17    log    factor    1.0000000E+00    1.0000000E-02    1.0000000E+03    Kz    2.0000000E-01    0    1
Kz18    log    factor    1.0000000E+00    1.0000000E-08    1.0000000E+03    Kz    1.0000000E-06    0    1
Kz19    log    factor    1.0000000E+00    1.0000000E-02    1.0000000E+03    Kz    1.0000000E+01    0    1
Kz20    log    factor    1.0000000E+00    1.0000000E-08    1.0000000E+03    Kz    1.0000000E-06    0    1
Kz21    log    factor    1.0000000E+00    1.0000000E-02    1.0000000E+03    Kz    2.0000000E-01    0    1
Kz22    log    factor    1.0000000E+00    1.0000000E-08    1.0000000E+03    Kz    1.0000000E-06    0    1
Kz23    log    factor    1.0000000E+00    1.0000000E-02    1.0000000E+03    Kz    1.0000000E+01    0    1
Kz24    log    factor    1.0000000E+00    1.0000000E-08    1.0000000E+03    Kz    1.0000000E-06    0    1
Kz25    log    factor    1.0000000E+00    1.0000000E-02    1.0000000E+03    Kz    5.0000000E+00    0    1
Kz26    log    factor    1.0000000E+00    1.0000000E-08    1.0000000E+03    Kz    1.0000000E-06    0    1
Kz28    log    factor    1.0000000E+00    1.0000000E-08    1.0000000E+03    Kz    1.0000000E-04    0    1
Kz36    log    factor    1.0000000E+00    1.0000000E-08    1.0000000E+03    Kz    1.0000000E-01    0    1
Kz38    log    factor    1.0000000E+00    1.0000000E-02    1.0000000E+03    Kz    5.0000000E-01    0    1
Kz39    log    factor    1.0000000E+00    1.0000000E-02    1.0000000E+03    Kz    5.0000000E-01    0    1
Kz40    log    factor    1.0000000E+00    1.0000000E-02    1.0000000E+03    Kz    1.0000000E+03    0    1
Kz41    log    factor    1.0000000E+00    1.0000000E-02    1.0000000E+03    Kz    1.0000000E+01    0    1
Kz48    log    factor    1.0000000E+00    1.0000000E-02    1.0000000E+03    Kz    5.0000000E-01    0    1
Kz49    log    factor    1.0000000E+00    1.0000000E-02    1.0000000E+03    Kz    5.0000000E-01    0    1
Kz95    log    factor    1.0000000E+00    1.0000000E-08    1.0000000E+03    Kz    1.0000000E-01    0    1
Ss1    log    factor    1.0000000E+00    1.0000000E-06    1.0000000E+00    Stor    1.0000000E-05    0    1
Ss2    log    factor    1.0000000E+00    1.0000000E-08    1.0000000E+00    Stor    5.0000000E-07    0    1
Ss3    log    factor    1.0000000E+00    1.0000000E-06    1.0000000E+00    Stor    1.0000000E-05    0    1
Ss4    log    factor    1.0000000E+00    1.0000000E-08    1.0000000E+00    Stor    5.0000000E-07    0    1
Ss5    log    factor    1.0000000E+00    1.0000000E-06    1.0000000E+00    Stor    1.0000000E-05    0    1
Ss6    log    factor    1.0000000E+00    1.0000000E-08    1.0000000E+00    Stor    5.0000000E-07    0    1
Ss7    log    factor    1.0000000E+00    1.0000000E-06    1.0000000E+00    Stor    1.0000000E-05    0    1
Ss8    log    factor    1.0000000E+00    1.0000000E-08    1.0000000E+00    Stor    5.0000000E-07    0    1
Ss9    log    factor    1.0000000E+00    1.0000000E-06    1.0000000E+00    Stor    1.0000000E-05    0    1
Ss10    log    factor    1.0000000E+00    1.0000000E-08    1.0000000E+00    Stor    5.0000000E-07    0    1
Ss11    log    factor    1.0000000E+00    1.0000000E-06    1.0000000E+00    Stor    1.0000000E-05    0    1
Ss12    log    factor    1.0000000E+00    1.0000000E-08    1.0000000E+00    Stor    5.0000000E-07    0    1
Ss13    log    factor    1.0000000E+00    1.0000000E-06    1.0000000E+00    Stor    1.0000000E-05    0    1
Ss14    log    factor    1.0000000E+00    1.0000000E-08    1.0000000E+00    Stor    5.0000000E-07    0    1
Ss15    log    factor    1.0000000E+00    1.0000000E-06    1.0000000E+00    Stor    1.0000000E-05    0    1
Ss16    log    factor    1.0000000E+00    1.0000000E-08    1.0000000E+00    Stor    5.0000000E-07    0    1
Ss17    log    factor    1.0000000E+00    1.0000000E-06    1.0000000E+00    Stor    1.0000000E-05    0    1
Ss18    log    factor    1.0000000E+00    1.0000000E-08    1.0000000E+00    Stor    5.0000000E-07    0    1
Ss19    log    factor    1.0000000E+00    1.0000000E-06    1.0000000E+00    Stor    1.0000000E-05    0    1
Ss20    log    factor    1.0000000E+00    1.0000000E-08    1.0000000E+00    Stor    5.0000000E-07    0    1
Ss21    log    factor    1.0000000E+00    1.0000000E-06    1.0000000E+00    Stor    1.0000000E-05    0    1
Ss22    log    factor    1.0000000E+00    1.0000000E-08    1.0000000E+00    Stor    5.0000000E-07    0    1
Ss23    log    factor    1.0000000E+00    1.0000000E-06    1.0000000E+00    Stor    1.0000000E-05    0    1
Ss24    log    factor    1.0000000E+00    1.0000000E-08    1.0000000E+00    Stor    5.0000000E-07    0    1
Ss25    log    factor    1.0000000E+00    1.0000000E-06    1.0000000E+00    Stor    1.0000000E-05    0    1
Ss26    log    factor    1.0000000E+00    1.0000000E-08    1.0000000E+00    Stor    5.0000000E-07    0    1
Ss28    log    factor    1.0000000E+00    1.0000000E-06    1.0000000E+00    Stor    5.0000000E-07    0    1
Ss38    log    factor    1.0000000E+00    1.0000000E-06    1.0000000E+00    Stor    1.0000000E-05    0    1
Ss39    log    factor    1.0000000E+00    1.0000000E-06    1.0000000E+00    Stor    1.0000000E-05    0    1
Ss40    log    factor    1.0000000E+00    1.0000000E-06    1.0000000E+00    Stor    2.5000000E-01    0    1
Ss41    log    factor    1.0000000E+00    1.0000000E-06    1.0000000E+00    Stor    2.5000000E-01    0    1
Ss48    log    factor    1.0000000E+00    1.0000000E-06    1.0000000E+00    Stor    1.0000000E-05    0    1
Ss49    log    factor    1.0000000E+00    1.0000000E-06    1.0000000E+00    Stor    1.0000000E-05    0    1
Ss95    log    factor    1.0000000E+00    1.0000000E-08    1.0000000E+00    Stor    5.0000000E-07    0    1
Sy1    log    factor    1.0000000E+00    1.0000000E-01    1.0000000E+00    Stor    2.5000000E-01    0    1
Sy2    log    factor    1.0000000E+00    1.0000000E-01    1.0000000E+00    Stor    5.0000000E-01    0    1
Sy3    log    factor    1.0000000E+00    1.0000000E-01    1.0000000E+00    Stor    2.5000000E-01    0    1
Sy4    log    factor    1.0000000E+00    1.0000000E-01    1.0000000E+00    Stor    5.0000000E-01    0    1
Sy5    log    factor    1.0000000E+00    1.0000000E-01    1.0000000E+00    Stor    2.5000000E-01    0    1
Sy6    log    factor    1.0000000E+00    1.0000000E-01    1.0000000E+00    Stor    5.0000000E-01    0    1
Sy7    log    factor    1.0000000E+00    1.0000000E-01    1.0000000E+00    Stor    2.5000000E-01    0    1
Sy8    log    factor    1.0000000E+00    1.0000000E-01    1.0000000E+00    Stor    5.0000000E-01    0    1
Sy9    log    factor    1.0000000E+00    1.0000000E-01    1.0000000E+00    Stor    2.5000000E-01    0    1
Sy10    log    factor    1.0000000E+00    1.0000000E-01    1.0000000E+00    Stor    5.0000000E-01    0    1
Sy11    log    factor    1.0000000E+00    1.0000000E-01    1.0000000E+00    Stor    2.5000000E-01    0    1
Sy12    log    factor    1.0000000E+00    1.0000000E-01    1.0000000E+00    Stor    5.0000000E-01    0    1
Sy13    log    factor    1.0000000E+00    1.0000000E-01    1.0000000E+00    Stor    2.5000000E-01    0    1
Sy14    log    factor    1.0000000E+00    1.0000000E-01    1.0000000E+00    Stor    5.0000000E-01    0    1
Sy15    log    factor    1.0000000E+00    1.0000000E-01    1.0000000E+00    Stor    2.5000000E-01    0    1
Sy16    log    factor    1.0000000E+00    1.0000000E-01    1.0000000E+00    Stor    5.0000000E-01    0    1
Sy17    log    factor    1.0000000E+00    1.0000000E-01    1.0000000E+00    Stor    2.5000000E-01    0    1
Sy18    log    factor    1.0000000E+00    1.0000000E-01    1.0000000E+00    Stor    5.0000000E-01    0    1
Sy19    log    factor    1.0000000E+00    1.0000000E-01    1.0000000E+00    Stor    2.5000000E-01    0    1
Sy20    log    factor    1.0000000E+00    1.0000000E-01    1.0000000E+00    Stor    5.0000000E-01    0    1
Sy21    log    factor    1.0000000E+00    1.0000000E-01    1.0000000E+00    Stor    2.5000000E-01    0    1
Sy22    log    factor    1.0000000E+00    1.0000000E-01    1.0000000E+00    Stor    5.0000000E-01    0    1
Sy23    log    factor    1.0000000E+00    1.0000000E-01    1.0000000E+00    Stor    2.5000000E-01    0    1
Sy24    log    factor    1.0000000E+00    1.0000000E-01    1.0000000E+00    Stor    5.0000000E-01    0    1
Sy25    log    factor    1.0000000E+00    1.0000000E-01    1.0000000E+00    Stor    2.5000000E-01    0    1
Sy26    log    factor    1.0000000E+00    1.0000000E-01    1.0000000E+00    Stor    5.0000000E-01    0    1
Sy28    log    factor    1.0000000E+00    1.0000000E-01    1.0000000E+00    Stor    5.0000000E-01    0    1
Sy38    log    factor    1.0000000E+00    1.0000000E-01    1.0000000E+00    Stor    2.5000000E-01    0    1
Sy39    log    factor    1.0000000E+00    1.0000000E-01    1.0000000E+00    Stor    2.5000000E-01    0    1
Sy40    log    factor    1.0000000E+00    1.0000000E-01    1.0000000E+00    Stor    2.5000000E-01    0    1
Sy41    log    factor    1.0000000E+00    1.0000000E-01    1.0000000E+00    Stor    2.5000000E-01    0    1
Sy48    log    factor    1.0000000E+00    1.0000000E-01    1.0000000E+00    Stor    2.5000000E-01    0    1
Sy49    log    factor    1.0000000E+00    1.0000000E-01    1.0000000E+00    Stor    2.5000000E-01    0    1
Sy95    log    factor    1.0000000E+00    1.0000000E-01    1.0000000E+00    Stor    5.0000000E-01    0    1
rm1    log    factor    1.0000000E+00    1.0000000E-01    2.0000000E+00    Rch    1.0000000E+00    0    1
rm2    log    factor    1.0000000E+00    1.0000000E-01    2.0000000E+00    Rch    1.0000000E+00    0    1
rm3    log    factor    1.0000000E+00    1.0000000E-01    2.0000000E+00    Rch    1.0000000E+00    0    1
rm4    log    factor    1.0000000E+00    1.0000000E-01    2.0000000E+00    Rch    1.0000000E+00    0    1
rm5    log    factor    1.0000000E+00    1.0000000E-01    2.0000000E+00    Rch    1.0000000E+00    0    1
rm6    log    factor    1.0000000E+00    1.0000000E-01    2.0000000E+00    Rch    1.0000000E+00    0    1
rm7    log    factor    1.0000000E+00    1.0000000E-01    2.0000000E+00    Rch    1.0000000E+00    0    1
rm8    log    factor    1.0000000E+00    1.0000000E-01    2.0000000E+00    Rch    1.0000000E+00    0    1
rm9    log    factor    1.0000000E+00    1.0000000E-01    2.0000000E+00    Rch    1.0000000E+00    0    1
rm10    log    factor    1.0000000E+00    1.0000000E-01    2.0000000E+00    Rch    1.0000000E+00    0    1
rm11    log    factor    1.0000000E+00    1.0000000E-01    2.0000000E+00    Rch    1.0000000E+00    0    1
rm12    log    factor    1.0000000E+00    1.0000000E-01    2.0000000E+00    Rch    1.0000000E+00    0    1
rm13    log    factor    1.0000000E+00    1.0000000E-01    2.0000000E+00    Rch    1.0000000E+00    0    1
rm14    log    factor    1.0000000E+00    1.0000000E-01    2.0000000E+00    Rch    1.0000000E+00    0    1
rm15    log    factor    1.0000000E+00    1.0000000E-01    2.0000000E+00    Rch    1.0000000E+00    0    1
rm16    log    factor    1.0000000E+00    1.0000000E-01    2.0000000E+00    Rch    1.0000000E+00    0    1
rm17    log    factor    1.0000000E+00    1.0000000E-01    2.0000000E+00    Rch    1.0000000E+00    0    1
rm18    log    factor    1.0000000E+00    1.0000000E-01    2.0000000E+00    Rch    1.0000000E+00    0    1
rm19    log    factor    1.0000000E+00    1.0000000E-01    2.0000000E+00    Rch    1.0000000E+00    0    1
rm20    log    factor    1.0000000E+00    1.0000000E-01    2.0000000E+00    Rch    1.0000000E+00    0    1
rm21    log    factor    1.0000000E+00    1.0000000E-01    2.0000000E+00    Rch    1.0000000E+00    0    1
rm22    log    factor    1.0000000E+00    1.0000000E-01    2.0000000E+00    Rch    1.0000000E+00    0    1
rm23    log    factor    1.0000000E+00    1.0000000E-01    2.0000000E+00    Rch    1.0000000E+00    0    1
rm24    log    factor    1.0000000E+00    1.0000000E-01    2.0000000E+00    Rch    1.0000000E+00    0    1
rm25    log    factor    1.0000000E+00    1.0000000E-01    2.0000000E+00    Rch    1.0000000E+00    0    1
rm26    log    factor    1.0000000E+00    1.0000000E-01    2.0000000E+00    Rch    1.0000000E+00    0    1
rm27    log    factor    1.0000000E+00    1.0000000E-01    2.0000000E+00    Rch    1.0000000E+00    0    1
rm28    log    factor    1.0000000E+00    1.0000000E-01    2.0000000E+00    Rch    1.0000000E+00    0    1
rm29    log    factor    1.0000000E+00    1.0000000E-01    2.0000000E+00    Rch    1.0000000E+00    0    1
rm30    log    factor    1.0000000E+00    1.0000000E-01    2.0000000E+00    Rch    1.0000000E+00    0    1
rm31    log    factor    1.0000000E+00    1.0000000E-01    2.0000000E+00    Rch    1.0000000E+00    0    1
rm32    log    factor    1.0000000E+00    1.0000000E-01    2.0000000E+00    Rch    1.0000000E+00    0    1
rm33    log    factor    1.0000000E+00    1.0000000E-01    2.0000000E+00    Rch    1.0000000E+00    0    1
rm34    log    factor    1.0000000E+00    1.0000000E-01    2.0000000E+00    Rch    1.0000000E+00    0    1
rm35    log    factor    1.0000000E+00    1.0000000E-01    2.0000000E+00    Rch    1.0000000E+00    0    1
* observation groups
Q_NHD
Q_NWIS
A1
B1
C1
D1
Z
* observation data
50929nhd 29.21 2.054094E-02 q_nhd      
52942nhd 30.6845 1.955382E-02 q_nhd      
47418nhd 10.4002 5.769120E-02 q_nhd      
43422nhd 20.4756 2.930316E-02 q_nhd      
37360nhd 33.1342 1.810818E-02 q_nhd      
36361nhd 42.7287 1.404210E-02 q_nhd      
32864nhd 21.3177 2.814564E-02 q_nhd      
30359nhd 177.3456 3.383220E-03 q_nhd      
27860nhd 40.0595 1.497774E-02 q_nhd      
26845nhd 158.3348 3.789420E-03 q_nhd      
41352nhd 82.5466 7.268640E-03 q_nhd      
41848nhd 47.7497 1.256550E-02 q_nhd      
45336nhd 59.9581 1.000698E-02 q_nhd      
44313nhd 201.3049 2.980560E-03 q_nhd      
41807nhd 85.0281 7.056480E-03 q_nhd      
26835nhd 154.243 3.889980E-03 q_nhd      
29832nhd 30.6435 1.957998E-02 q_nhd      
28828nhd 17.6299 3.403308E-02 q_nhd      
28826nhd 59.6564 1.005762E-02 q_nhd      
27304nhd 94.835 6.326760E-03 q_nhd      
27798nhd 56.3475 1.064820E-02 q_nhd      
25791nhd 66.71 8.994180E-03 q_nhd      
24288nhd 46.8624 1.280346E-02 q_nhd      
20777nhd 70.3431 8.529600E-03 q_nhd      
38281nhd 323.0881 1.857060E-03 q_nhd      
40283nhd 41.4125 1.448838E-02 q_nhd      
47276nhd 48.8693 1.227762E-02 q_nhd      
29261nhd 78.7473 7.619280E-03 q_nhd      
31256nhd 32.7996 1.829292E-02 q_nhd      
34252nhd 44.1407 1.359288E-02 q_nhd      
38243nhd 26.8916 2.231178E-02 q_nhd      
38742nhd 19.7498 3.038004E-02 q_nhd      
41245nhd 63.152 9.500880E-03 q_nhd      
14242nhd 22.5646 2.659032E-02 q_nhd      
12241nhd 11.3367 5.292546E-02 q_nhd      
10736nhd 6.6163 9.068514E-02 q_nhd      
10226nhd 14.4352 4.156506E-02 q_nhd      
8221nhd 14.8665 4.035918E-02 q_nhd      
8718nhd 63.4308 9.459120E-03 q_nhd      
16195nhd 201.573 2.976600E-03 q_nhd      
20188nhd 24.5591 2.443086E-02 q_nhd      
15763nhd 26.1408 2.295264E-02 q_nhd      
17265nhd 16.2746 3.686724E-02 q_nhd      
18266nhd 19.095 3.142182E-02 q_nhd      
24747nhd 112.0195 5.356200E-03 q_nhd      
24743nhd 30.5594 1.963392E-02 q_nhd      
30226nhd 117.6853 5.098320E-03 q_nhd      
32234nhd 161.5251 3.714600E-03 q_nhd      
33230nhd 20.3829 2.943642E-02 q_nhd      
38720nhd 183.6377 3.267300E-03 q_nhd      
43725nhd 150.3413 3.990900E-03 q_nhd      
45224nhd 67.5497 8.882340E-03 q_nhd      
49708nhd 45.0657 1.331388E-02 q_nhd      
58208nhd 211.5338 2.836440E-03 q_nhd      
9692nhd 118.1788 5.077080E-03 q_nhd      
9672nhd 21.6579 2.770350E-02 q_nhd      
8671nhd 19.1531 3.132654E-02 q_nhd      
13678nhd 65.9065 9.103800E-03 q_nhd      
13168nhd 88.1203 6.808860E-03 q_nhd      
12146nhd 32.0078 1.874544E-02 q_nhd      
20166nhd 120.5413 4.977540E-03 q_nhd      
21166nhd 51.7082 1.160358E-02 q_nhd      
28668nhd 38.667 1.551708E-02 q_nhd      
33670nhd 35.5248 1.688958E-02 q_nhd      
14139nhd 39.7044 1.511166E-02 q_nhd      
27142nhd 33.399 1.796460E-02 q_nhd      
31148nhd 48.6053 1.234434E-02 q_nhd      
31140nhd 26.3267 2.279058E-02 q_nhd      
32139nhd 24.8969 2.409936E-02 q_nhd      
33137nhd 31.8526 1.883676E-02 q_nhd      
37147nhd 28.7424 2.087508E-02 q_nhd      
46131nhd 135.7004 4.421520E-03 q_nhd      
51125nhd 31.2846 1.917876E-02 q_nhd      
51624nhd 15.5967 3.846966E-02 q_nhd      
33114nhd 29.2146 2.053770E-02 q_nhd      
34617nhd 27.7224 2.164314E-02 q_nhd      
46625nhd 15.2377 3.937602E-02 q_nhd      
30095nhd 8.1582 7.354566E-02 q_nhd      
31095nhd 9.8566 6.087294E-02 q_nhd      
38098nhd 25.9234 2.314512E-02 q_nhd      
35084nhd 12.7869 4.692300E-02 q_nhd      
43095nhd 19.6571 3.052332E-02 q_nhd      
48607nhd 19.3801 3.095958E-02 q_nhd      
54103nhd 14.3584 4.178736E-02 q_nhd      
60612nhd 12.3294 4.866414E-02 q_nhd      
57597nhd 20.23 2.965890E-02 q_nhd      
62590nhd 59.955 1.000752E-02 q_nhd      
64088nhd 94.2948 6.363000E-03 q_nhd      
60066nhd 705.884 8.500200E-04 q_nhd      
58563nhd 34.0528 1.761972E-02 q_nhd      
61565nhd 100.9381 5.944260E-03 q_nhd      
75579nhd 186.4103 3.218700E-03 q_nhd      
76104nhd 22.5989 2.654994E-02 q_nhd      
76100nhd 30.8229 1.946604E-02 q_nhd      
59056nhd 331.4789 1.810080E-03 q_nhd      
58054nhd 69.2264 8.667240E-03 q_nhd      
61558nhd 9.9862 6.008292E-02 q_nhd      
62053nhd 205.8272 2.915040E-03 q_nhd      
67061nhd 41.1853 1.456830E-02 q_nhd      
68064nhd 91.5677 6.552540E-03 q_nhd      
60530nhd 241.181 2.487780E-03 q_nhd      
60525nhd 18.5542 3.233772E-02 q_nhd      
73530nhd 57.7735 1.038540E-02 q_nhd      
70533nhd 98.274 6.105360E-03 q_nhd      
73522nhd 108.4653 5.531700E-03 q_nhd      
74505nhd 171.383 3.500940E-03 q_nhd      
74004nhd 81.928 7.323480E-03 q_nhd      
64501nhd 556.2449 1.078680E-03 q_nhd      
65501nhd 93.936 6.387300E-03 q_nhd      
43339nhd 200.406 2.993940E-03 q_nhd      
41307nhd 182.5753 3.286320E-03 q_nhd      
28835nhd 199.9945 3.000060E-03 q_nhd      
29319nhd 516.1389 1.162500E-03 q_nhd      
10737nhd 5.3783 1.115594E-01 q_nhd      
16692nhd 113.1821 5.301180E-03 q_nhd      
46719nhd 88.4225 6.785580E-03 q_nhd      
31625nhd 470.7349 1.274580E-03 q_nhd      
32117nhd 248.2953 2.416500E-03 q_nhd      
35114nhd 31.68 1.893942E-02 q_nhd      
39108nhd 227.7417 2.634540E-03 q_nhd      
58065nhd 784.6566 7.646400E-04 q_nhd      
66551nhd 158.5081 3.785280E-03 q_nhd      
68552nhd 66.9699 8.959260E-03 q_nhd      
60031nhd 16.2476 3.692856E-02 q_nhd      
71534nhd 161.51 3.714960E-03 q_nhd      
78007nhd 57.1854 1.049220E-02 q_nhd      
19777nhd 60.4249 9.929700E-03 q_nhd      
85515nhd 59.995 1.000086E-02 q_nhd      
34627nhd 27.7746 2.160246E-02 q_nhd      
q063_86 35.10613 5.697010E-03 q_nwis      
q063_87 38.05663 5.255326E-03 q_nwis      
q063_88 34.2088 5.846448E-03 q_nwis      
q063_89 47.7506 4.188430E-03 q_nwis      
q063_90 53.59 3.732040E-03 q_nwis      
q063_91 50.6212 3.950914E-03 q_nwis      
q063_92 40.8946 4.890622E-03 q_nwis      
q063_93 43.0885 4.641610E-03 q_nwis      
q063_94 39.82773 5.021626E-03 q_nwis      
q063_95 31.73557 6.302078E-03 q_nwis      
q063_96 39.672 5.041338E-03 q_nwis      
q063_97 41.87295 4.776354E-03 q_nwis      
q063_98 49.32527 4.054718E-03 q_nwis      
q063_99 40.51235 4.936766E-03 q_nwis      
q063_00 41.124 4.863340E-03 q_nwis      
q063_01 39.17333 5.105514E-03 q_nwis      
q063_02 29.31953 6.821390E-03 q_nwis      
q063_03 43.2165 4.627862E-03 q_nwis      
q063_04 45.6768 4.378590E-03 q_nwis      
q063_05 48.34817 4.136662E-03 q_nwis      
q063_06 53.3463 3.749088E-03 q_nwis      
q063_07 51.07942 3.915472E-03 q_nwis      
q063_08 45.51525 4.394132E-03 q_nwis      
q063_09 47.90977 4.174514E-03 q_nwis      
q075_86 20.08907 9.955664E-03 q_nwis      
q075_87 25.96983 7.701244E-03 q_nwis      
q075_88 22.15995 9.025292E-03 q_nwis      
q075_89 47.50167 4.210378E-03 q_nwis      
q075_90 51.0059 3.921116E-03 q_nwis      
q075_91 39.25473 5.094926E-03 q_nwis      
q075_92 28.21685 7.087964E-03 q_nwis      
q075_93 33.0106 6.058660E-03 q_nwis      
q075_94 31.4048 6.368454E-03 q_nwis      
q075_95 19.57185 1.021876E-02 q_nwis      
q075_96 31.99945 6.250108E-03 q_nwis      
q075_97 33.51147 5.968106E-03 q_nwis      
q075_98 47.5345 4.207470E-03 q_nwis      
q075_99 35.5092 5.632344E-03 q_nwis      
q075_00 27.84142 7.183542E-03 q_nwis      
q075_01 37.319 5.359200E-03 q_nwis      
q075_02 20.8495 9.592556E-03 q_nwis      
q075_03 46.69227 4.283364E-03 q_nwis      
q075_04 37.1133 5.388904E-03 q_nwis      
q075_05 38.14297 5.243430E-03 q_nwis      
q075_06 53.6216 3.729840E-03 q_nwis      
q075_07 44.99407 4.445030E-03 q_nwis      
q075_08 33.306 6.004924E-03 q_nwis      
q075_09 39.46733 5.067482E-03 q_nwis      
q014_86 17.51567 1.141835E-02 q_nwis      
q014_87 19.82715 1.008718E-02 q_nwis      
q014_88 15.73957 1.270683E-02 q_nwis      
q014_89 26.25477 7.617664E-03 q_nwis      
q014_90 30.73345 6.507568E-03 q_nwis      
q014_91 27.89087 7.170806E-03 q_nwis      
q014_92 19.59707 1.020561E-02 q_nwis      