pcf
* control data
restart estimation
175  15110  6  0  7
4  3  single  point  1  0  0
1.000000e+001  -3.000000e+000  3.000000e-001  1.000000e-002  7 999 lamforgive derforgive
1.000000e+001  1.000000e+001  1.000000e-003
1.000000e-001 1 noaui noboundscale
20  1.000000e-002  3  3  1.000000e-002  3 0 0
0  0  0   PARSAVEITN
* singular value decomposition
     1
    150  5.0000000E-07
     0
* parameter groups
Kx     relative   1.000000e-002  0.000000e+000  switch  2.000000e+000  parabolic
Kz     relative   1.000000e-002  0.000000e+000  switch  2.000000e+000  parabolic
Stor   relative   1.000000e-002  0.000000e+000  switch  2.000000e+000  parabolic
Rch    relative   1.000000e-002  0.000000e+000  switch  2.000000e+000  parabolic
BCCond    relative   1.000000e-002  0.000000e+000  switch  2.000000e+000  parabolic
Shead    relative   1.000000e-002  0.000000e+000  switch  2.000000e+000  parabolic
* parameter data
GHBCond    fixed    factor    1.0000000E+00    1.0000000E-05    1.0000000E+04    BCCond    6.0000000E+05    0    1
RIVCond    fixed    factor    1.0000000E+00    1.0000000E-05    1.0000000E+04    BCCond    6.0000000E+05    0    1
Kx1    log    factor    1.0000000E+00    1.0000000E-01    1.0000000E+03    Kx    1.5000000E+02    0    1
Kx2    log    factor    1.0000000E+00    1.0000000E-08    1.0000000E+03    Kx    1.0000000E-01    0    1
Kx3    log    factor    1.0000000E+00    1.0000000E-01    1.0000000E+03    Kx    1.5000000E+02    0    1
Kx4    log    factor    1.0000000E+00    1.0000000E-08    1.0000000E+03    Kx    1.0000000E-01    0    1
Kx5    log    factor    1.0000000E+00    1.0000000E-01    1.0000000E+03    Kx    1.5000000E+02    0    1
Kx6    log    factor    1.0000000E+00    1.0000000E-08    1.0000000E+03    Kx    1.0000000E-00    0    1
Kx7    log    factor    1.0000000E+00    1.0000000E-01    1.0000000E+03    Kx    1.9400000E+02    0    1
Kx8    log    factor    1.0000000E+00    1.0000000E-08    1.0000000E+03    Kx    1.0000000E-01    0    1
Kx9    log    factor    1.0000000E+00    1.0000000E-01    1.0000000E+03    Kx    5.4000000E+01    0    1
Kx10    log    factor    1.0000000E+00    1.0000000E-08    1.0000000E+03    Kx    1.0000000E-01    0    1
Kx11    log    factor    1.0000000E+00    1.0000000E-01    1.0000000E+03    Kx    1.3600000E+02    0    1
Kx12    log    factor    1.0000000E+00    1.0000000E-08    1.0000000E+03    Kx    1.0000000E-04    0    1
Kx13    log    factor    1.0000000E+00    1.0000000E-01    1.0000000E+04    Kx    7.0000000E+01    0    1
Kx14    log    factor    1.0000000E+00    1.0000000E-08    1.0000000E+03    Kx    1.0000000E-06    0    1
Kx15    log    factor    1.0000000E+00    1.0000000E-01    1.0000000E+03    Kx    7.5000000E+01    0    1
Kx16    log    factor    1.0000000E+00    1.0000000E-08    1.0000000E+03    Kx    1.0000000E-06    0    1
Kx17    log    factor    1.0000000E+00    1.0000000E-01    1.0000000E+03    Kx    2.0000000E+01    0    1
Kx18    log    factor    1.0000000E+00    1.0000000E-08    1.0000000E+03    Kx    1.0000000E-06    0    1
Kx19    log    factor    1.0000000E+00    1.0000000E-01    1.0000000E+03    Kx    9.8000000E+01    0    1
Kx20    log    factor    1.0000000E+00    1.0000000E-08    1.0000000E+03    Kx    1.0000000E-06    0    1
Kx21    log    factor    1.0000000E+00    1.0000000E-01    1.0000000E+03    Kx    2.2000000E+01    0    1
Kx22    log    factor    1.0000000E+00    1.0000000E-08    1.0000000E+03    Kx    1.0000000E-06    0    1
Kx23    log    factor    1.0000000E+00    1.0000000E-01    1.0000000E+03    Kx    1.0000000E+02    0    1
Kx24    log    factor    1.0000000E+00    1.0000000E-08    1.0000000E+03    Kx    1.0000000E-06    0    1
Kx25    log    factor    1.0000000E+00    1.0000000E-01    1.0000000E+03    Kx    5.0000000E+01    0    1
Kx26    log    factor    1.0000000E+00    1.0000000E-08    1.0000000E+03    Kx    1.0000000E-06    0    1
Kx28    log    factor    1.0000000E+00    1.0000000E-08    1.0000000E+03    Kx    1.0000000E-04    0    1
Kx36    log    factor    1.0000000E+00    1.0000000E-08    1.0000000E+03    Kx    1.0000000E-01    0    1
Kx38    log    factor    1.0000000E+00    1.0000000E-01    1.0000000E+03    Kx    5.0000000E+01    0    1
Kx39    log    factor    1.0000000E+00    1.0000000E-01    1.0000000E+03    Kx    5.0000000E+01    0    1
Kx40    fixed    factor    1.0000000E+00    1.0000000E-01    1.0000000E+05    Kx    1.0000000E+03    0    1
Kx41    fixed    factor    1.0000000E+00    1.0000000E-01    1.0000000E+03    Kx    3.0000000E+01    0    1
Kx48    log    factor    1.0000000E+00    1.0000000E-01    1.0000000E+03    Kx    5.0000000E+01    0    1
Kx49    log    factor    1.0000000E+00    1.0000000E-01    1.0000000E+03    Kx    5.0000000E+01    0    1
Kx95    log    factor    1.0000000E+00    1.0000000E-08    1.0000000E+03    Kx    1.0000000E-01    0    1
Kz1    log    factor    1.0000000E+00    1.0000000E-02    1.0000000E+03    Kz    1.5000000E+01    0    1
Kz2    log    factor    1.0000000E+00    1.0000000E-08    1.0000000E+03    Kz    1.0000000E-01    0    1
Kz3    log    factor    1.0000000E+00    1.0000000E-02    1.0000000E+03    Kz    1.5000000E+01    0    1
Kz4    log    factor    1.0000000E+00    1.0000000E-08    1.0000000E+03    Kz    1.0000000E-01    0    1
Kz5    log    factor    1.0000000E+00    1.0000000E-02    1.0000000E+03    Kz    1.5000000E+01    0    1
Kz6    log    factor    1.0000000E+00    1.0000000E-08    1.0000000E+03    Kz    1.0000000E-01    0    1
Kz7    log    factor    1.0000000E+00    1.0000000E-02    1.0000000E+03    Kz    4.0000000E+01    0    1
Kz8    log    factor    1.0000000E+00    1.0000000E-08    1.0000000E+03    Kz    1.0000000E-01    0    1
Kz9    log    factor    1.0000000E+00    1.0000000E-02    1.0000000E+03    Kz    5.0000000E+00    0    1
Kz10    log    factor    1.0000000E+00    1.0000000E-08    1.0000000E+03    Kz    1.0000000E-01    0    1
Kz11    log    factor    1.0000000E+00    1.0000000E-02    1.0000000E+03    Kz    1.5000000E+01    0    1
Kz12    log    factor    1.0000000E+00    1.0000000E-08    1.0000000E+03    Kz    1.0000000E-04    0    1
Kz13    log    factor    1.0000000E+00    1.0000000E-02    1.0000000E+03    Kz    7.0000000E+00    0    1
Kz14    log    factor    1.0000000E+00    1.0000000E-08    1.0000000E+03    Kz    1.0000000E-06    0    1
Kz15    log    factor    1.0000000E+00    1.0000000E-02    1.0000000E+03    Kz    7.5000000E-01    0    1
Kz16    log    factor    1.0000000E+00    1.0000000E-08    1.0000000E+03    Kz    1.0000000E-06    0    1
Kz17    log    factor    1.0000000E+00    1.0000000E-02    1.0000000E+03    Kz    2.0000000E-01    0    1
Kz18    log    factor    1.0000000E+00    1.0000000E-08    1.0000000E+03    Kz    1.0000000E-06    0    1
Kz19    log    factor    1.0000000E+00    1.0000000E-02    1.0000000E+03    Kz    1.0000000E+01    0    1
Kz20    log    factor    1.0000000E+00    1.0000000E-08    1.0000000E+03    Kz    1.0000000E-06    0    1
Kz21    log    factor    1.0000000E+00    1.0000000E-02    1.0000000E+03    Kz    2.0000000E-01    0    1
Kz22    log    factor    1.0000000E+00    1.0000000E-08    1.0000000E+03    Kz    1.0000000E-06    0    1
Kz23    log    factor    1.0000000E+00    1.0000000E-02    1.0000000E+03    Kz    1.0000000E+01    0    1
Kz24    log    factor    1.0000000E+00    1.0000000E-08    1.0000000E+03    Kz    1.0000000E-06    0    1
Kz25    log    factor    1.0000000E+00    1.0000000E-02    1.0000000E+03    Kz    5.0000000E+00    0    1
Kz26    log    factor    1.0000000E+00    1.0000000E-08    1.0000000E+03    Kz    1.0000000E-06    0    1
Kz28    log    factor    1.0000000E+00    1.0000000E-08    1.0000000E+03    Kz    1.0000000E-04    0    1
Kz36    log    factor    1.0000000E+00    1.0000000E-08    1.0000000E+03    Kz    1.0000000E-01    0    1
Kz38    log    factor    1.0000000E+00    1.0000000E-02    1.0000000E+03    Kz    5.0000000E-01    0    1
Kz39    log    factor    1.0000000E+00    1.0000000E-02    1.0000000E+03    Kz    5.0000000E-01    0    1
Kz40    fixed    factor    1.0000000E+00    1.0000000E-02    1.0000000E+03    Kz    1.0000000E+03    0    1
Kz41    fixed    factor    1.0000000E+00    1.0000000E-02    1.0000000E+03    Kz    1.0000000E+01    0    1
Kz48    log    factor    1.0000000E+00    1.0000000E-02    1.0000000E+03    Kz    5.0000000E-01    0    1
Kz49    log    factor    1.0000000E+00    1.0000000E-02    1.0000000E+03    Kz    5.0000000E-01    0    1
Kz95    log    factor    1.0000000E+00    1.0000000E-08    1.0000000E+03    Kz    1.0000000E-01    0    1
Ss1    log    factor    1.0000000E+00    1.0000000E-06    1.0000000E+00    Stor    1.0000000E-05    0    1
Ss2    log    factor    1.0000000E+00    1.0000000E-08    1.0000000E+00    Stor    5.0000000E-07    0    1
Ss3    log    factor    1.0000000E+00    1.0000000E-06    1.0000000E+00    Stor    1.0000000E-05    0    1
Ss4    log    factor    1.0000000E+00    1.0000000E-08    1.0000000E+00    Stor    5.0000000E-07    0    1
Ss5    log    factor    1.0000000E+00    1.0000000E-06    1.0000000E+00    Stor    1.0000000E-05    0    1
Ss6    log    factor    1.0000000E+00    1.0000000E-08    1.0000000E+00    Stor    5.0000000E-07    0    1
Ss7    log    factor    1.0000000E+00    1.0000000E-06    1.0000000E+00    Stor    1.0000000E-05    0    1
Ss8    log    factor    1.0000000E+00    1.0000000E-08    1.0000000E+00    Stor    5.0000000E-07    0    1
Ss9    log    factor    1.0000000E+00    1.0000000E-06    1.0000000E+00    Stor    1.0000000E-05    0    1
Ss10    log    factor    1.0000000E+00    1.0000000E-08    1.0000000E+00    Stor    5.0000000E-07    0    1
Ss11    log    factor    1.0000000E+00    1.0000000E-06    1.0000000E+00    Stor    1.0000000E-05    0    1
Ss12    log    factor    1.0000000E+00    1.0000000E-08    1.0000000E+00    Stor    5.0000000E-07    0    1
Ss13    log    factor    1.0000000E+00    1.0000000E-06    1.0000000E+00    Stor    1.0000000E-05    0    1
Ss14    log    factor    1.0000000E+00    1.0000000E-08    1.0000000E+00    Stor    5.0000000E-07    0    1
Ss15    log    factor    1.0000000E+00    1.0000000E-06    1.0000000E+00    Stor    1.0000000E-05    0    1
Ss16    log    factor    1.0000000E+00    1.0000000E-08    1.0000000E+00    Stor    5.0000000E-07    0    1
Ss17    log    factor    1.0000000E+00    1.0000000E-06    1.0000000E+00    Stor    1.0000000E-05    0    1
Ss18    log    factor    1.0000000E+00    1.0000000E-08    1.0000000E+00    Stor    5.0000000E-07    0    1
Ss19    log    factor    1.0000000E+00    1.0000000E-06    1.0000000E+00    Stor    1.0000000E-05    0    1
Ss20    log    factor    1.0000000E+00    1.0000000E-08    1.0000000E+00    Stor    5.0000000E-07    0    1
Ss21    log    factor    1.0000000E+00    1.0000000E-06    1.0000000E+00    Stor    1.0000000E-05    0    1
Ss22    log    factor    1.0000000E+00    1.0000000E-08    1.0000000E+00    Stor    5.0000000E-07    0    1
Ss23    log    factor    1.0000000E+00    1.0000000E-06    1.0000000E+00    Stor    1.0000000E-05    0    1
Ss24    log    factor    1.0000000E+00    1.0000000E-08    1.0000000E+00    Stor    5.0000000E-07    0    1
Ss25    log    factor    1.0000000E+00    1.0000000E-06    1.0000000E+00    Stor    1.0000000E-05    0    1
Ss26    log    factor    1.0000000E+00    1.0000000E-08    1.0000000E+00    Stor    5.0000000E-07    0    1
Ss28    log    factor    1.0000000E+00    1.0000000E-06    1.0000000E+00    Stor    5.0000000E-07    0    1
Ss38    log    factor    1.0000000E+00    1.0000000E-06    1.0000000E+00    Stor    1.0000000E-05    0    1
Ss39    log    factor    1.0000000E+00    1.0000000E-06    1.0000000E+00    Stor    1.0000000E-05    0    1
Ss40    fixed    factor    1.0000000E+00    1.0000000E-06    1.0000000E+00    Stor    2.5000000E-01    0    1
Ss41    fixed    factor    1.0000000E+00    1.0000000E-06    1.0000000E+00    Stor    2.5000000E-01    0    1
Ss48    log    factor    1.0000000E+00    1.0000000E-06    1.0000000E+00    Stor    1.0000000E-05    0    1
Ss49    log    factor    1.0000000E+00    1.0000000E-06    1.0000000E+00    Stor    1.0000000E-05    0    1
Ss95    log    factor    1.0000000E+00    1.0000000E-08    1.0000000E+00    Stor    5.0000000E-07    0    1
Sy1    log    factor    1.0000000E+00    1.0000000E-01    1.0000000E+00    Stor    2.5000000E-01    0    1
Sy2    log    factor    1.0000000E+00    1.0000000E-01    1.0000000E+00    Stor    5.0000000E-01    0    1
Sy3    log    factor    1.0000000E+00    1.0000000E-01    1.0000000E+00    Stor    2.5000000E-01    0    1
Sy4    log    factor    1.0000000E+00    1.0000000E-01    1.0000000E+00    Stor    5.0000000E-01    0    1
Sy5    log    factor    1.0000000E+00    1.0000000E-01    1.0000000E+00    Stor    2.5000000E-01    0    1
Sy6    log    factor    1.0000000E+00    1.0000000E-01    1.0000000E+00    Stor    5.0000000E-01    0    1
Sy7    log    factor    1.0000000E+00    1.0000000E-01    1.0000000E+00    Stor    2.5000000E-01    0    1
Sy8    log    factor    1.0000000E+00    1.0000000E-01    1.0000000E+00    Stor    5.0000000E-01    0    1
Sy9    log    factor    1.0000000E+00    1.0000000E-01    1.0000000E+00    Stor    2.5000000E-01    0    1
Sy10    log    factor    1.0000000E+00    1.0000000E-01    1.0000000E+00    Stor    5.0000000E-01    0    1
Sy11    log    factor    1.0000000E+00    1.0000000E-01    1.0000000E+00    Stor    2.5000000E-01    0    1
Sy12    log    factor    1.0000000E+00    1.0000000E-01    1.0000000E+00    Stor    5.0000000E-01    0    1
Sy13    log    factor    1.0000000E+00    1.0000000E-01    1.0000000E+00    Stor    2.5000000E-01    0    1
Sy14    log    factor    1.0000000E+00    1.0000000E-01    1.0000000E+00    Stor    5.0000000E-01    0    1
Sy15    log    factor    1.0000000E+00    1.0000000E-01    1.0000000E+00    Stor    2.5000000E-01    0    1
Sy16    log    factor    1.0000000E+00    1.0000000E-01    1.0000000E+00    Stor    5.0000000E-01    0    1
Sy17    log    factor    1.0000000E+00    1.0000000E-01    1.0000000E+00    Stor    2.5000000E-01    0    1
Sy18    log    factor    1.0000000E+00    1.0000000E-01    1.0000000E+00    Stor    5.0000000E-01    0    1
Sy19    log    factor    1.0000000E+00    1.0000000E-01    1.0000000E+00    Stor    2.5000000E-01    0    1
Sy20    log    factor    1.0000000E+00    1.0000000E-01    1.0000000E+00    Stor    5.0000000E-01    0    1
Sy21    log    factor    1.0000000E+00    1.0000000E-01    1.0000000E+00    Stor    2.5000000E-01    0    1
Sy22    log    factor    1.0000000E+00    1.0000000E-01    1.0000000E+00    Stor    5.0000000E-01    0    1
Sy23    log    factor    1.0000000E+00    1.0000000E-01    1.0000000E+00    Stor    2.5000000E-01    0    1
Sy24    log    factor    1.0000000E+00    1.0000000E-01    1.0000000E+00    Stor    5.0000000E-01    0    1
Sy25    log    factor    1.0000000E+00    1.0000000E-01    1.0000000E+00    Stor    2.5000000E-01    0    1
Sy26    log    factor    1.0000000E+00    1.0000000E-01    1.0000000E+00    Stor    5.0000000E-01    0    1
Sy28    log    factor    1.0000000E+00    1.0000000E-01    1.0000000E+00    Stor    5.0000000E-01    0    1
Sy38    log    factor    1.0000000E+00    1.0000000E-01    1.0000000E+00    Stor    2.5000000E-01    0    1
Sy39    log    factor    1.0000000E+00    1.0000000E-01    1.0000000E+00    Stor    2.5000000E-01    0    1
Sy40    fixed    factor    1.0000000E+00    1.0000000E-01    1.0000000E+00    Stor    2.5000000E-01    0    1
Sy41    fixed    factor    1.0000000E+00    1.0000000E-01    1.0000000E+00    Stor    2.5000000E-01    0    1
Sy48    log    factor    1.0000000E+00    1.0000000E-01    1.0000000E+00    Stor    2.5000000E-01    0    1
Sy49    log    factor    1.0000000E+00    1.0000000E-01    1.0000000E+00    Stor    2.5000000E-01    0    1
Sy95    log    factor    1.0000000E+00    1.0000000E-01    1.0000000E+00    Stor    5.0000000E-01    0    1
rm1    log    factor    1.0000000E+00    1.0000000E-01    2.0000000E+00    Rch    1.0000000E+00    0    1
rm2    log    factor    1.0000000E+00    1.0000000E-01    2.0000000E+00    Rch    1.0000000E+00    0    1
rm3    log    factor    1.0000000E+00    1.0000000E-01    2.0000000E+00    Rch    1.0000000E+00    0    1
rm4    log    factor    1.0000000E+00    1.0000000E-01    2.0000000E+00    Rch    1.0000000E+00    0    1
rm5    log    factor    1.0000000E+00    1.0000000E-01    2.0000000E+00    Rch    1.0000000E+00    0    1
rm6    log    factor    1.0000000E+00    1.0000000E-01    2.0000000E+00    Rch    1.0000000E+00    0    1
rm7    log    factor    1.0000000E+00    1.0000000E-01    2.0000000E+00    Rch    1.0000000E+00    0    1
rm8    log    factor    1.0000000E+00    1.0000000E-01    2.0000000E+00    Rch    1.0000000E+00    0    1
rm9    log    factor    1.0000000E+00    1.0000000E-01    2.0000000E+00    Rch    1.0000000E+00    0    1
rm10    log    factor    1.0000000E+00    1.0000000E-01    2.0000000E+00    Rch    1.0000000E+00    0    1
rm11    log    factor    1.0000000E+00    1.0000000E-01    2.0000000E+00    Rch    1.0000000E+00    0    1
rm12    log    factor    1.0000000E+00    1.0000000E-01    2.0000000E+00    Rch    1.0000000E+00    0    1
rm13    log    factor    1.0000000E+00    1.0000000E-01    2.0000000E+00    Rch    1.0000000E+00    0    1
rm14    log    factor    1.0000000E+00    1.0000000E-01    2.0000000E+00    Rch    1.0000000E+00    0    1
rm15    log    factor    1.0000000E+00    1.0000000E-01    2.0000000E+00    Rch    1.0000000E+00    0    1
rm16    log    factor    1.0000000E+00    1.0000000E-01    2.0000000E+00    Rch    1.0000000E+00    0    1
rm17    log    factor    1.0000000E+00    1.0000000E-01    2.0000000E+00    Rch    1.0000000E+00    0    1
rm18    log    factor    1.0000000E+00    1.0000000E-01    2.0000000E+00    Rch    1.0000000E+00    0    1
rm19    log    factor    1.0000000E+00    1.0000000E-01    2.0000000E+00    Rch    1.0000000E+00    0    1
rm20    log    factor    1.0000000E+00    1.0000000E-01    2.0000000E+00    Rch    1.0000000E+00    0    1
rm21    log    factor    1.0000000E+00    1.0000000E-01    2.0000000E+00    Rch    1.0000000E+00    0    1
rm22    log    factor    1.0000000E+00    1.0000000E-01    2.0000000E+00    Rch    1.0000000E+00    0    1
rm23    log    factor    1.0000000E+00    1.0000000E-01    2.0000000E+00    Rch    1.0000000E+00    0    1
rm24    log    factor    1.0000000E+00    1.0000000E-01    2.0000000E+00    Rch    1.0000000E+00    0    1
rm25    log    factor    1.0000000E+00    1.0000000E-01    2.0000000E+00    Rch    1.0000000E+00    0    1
rm26    log    factor    1.0000000E+00    1.0000000E-01    2.0000000E+00    Rch    1.0000000E+00    0    1
rm27    log    factor    1.0000000E+00    1.0000000E-01    2.0000000E+00    Rch    1.0000000E+00    0    1
rm28    log    factor    1.0000000E+00    1.0000000E-01    2.0000000E+00    Rch    1.0000000E+00    0    1
rm29    log    factor    1.0000000E+00    1.0000000E-01    2.0000000E+00    Rch    1.0000000E+00    0    1
rm30    log    factor    1.0000000E+00    1.0000000E-01    2.0000000E+00    Rch    1.0000000E+00    0    1
rm31    log    factor    1.0000000E+00    1.0000000E-01    2.0000000E+00    Rch    1.0000000E+00    0    1
rm32    log    factor    1.0000000E+00    1.0000000E-01    2.0000000E+00    Rch    1.0000000E+00    0    1
rm33    log    factor    1.0000000E+00    1.0000000E-01    2.0000000E+00    Rch    1.0000000E+00    0    1
rm34    log    factor    1.0000000E+00    1.0000000E-01    2.0000000E+00    Rch    1.0000000E+00    0    1
rm35    log    factor    1.0000000E+00    1.0000000E-01    2.0000000E+00    Rch    1.0000000E+00    0    1
* observation groups
Q_NHD
Q_NWIS
A1
B1
C1
D1
Z
* observation data
50929nhd             29.21      2.054094E-02       q_nhd
52942nhd             30.68      1.955382E-02       q_nhd
47418nhd             10.40      5.769120E-02       q_nhd
43422nhd             20.48      2.930316E-02       q_nhd
37360nhd             33.13      1.810818E-02       q_nhd
36361nhd             42.73      1.404210E-02       q_nhd
32864nhd             21.32      2.814564E-02       q_nhd
30359nhd            177.35      3.383220E-03       q_nhd
27860nhd             40.06      1.497774E-02       q_nhd
26845nhd            158.33      3.789420E-03       q_nhd
41352nhd             82.55      7.268640E-03       q_nhd
41848nhd             47.75      1.256550E-02       q_nhd
45336nhd             59.96      1.000698E-02       q_nhd
44313nhd            201.30      2.980560E-03       q_nhd
41807nhd             85.03      7.056480E-03       q_nhd
26835nhd            154.24      3.889980E-03       q_nhd
29832nhd             30.64      1.957998E-02       q_nhd
28828nhd             17.63      3.403308E-02       q_nhd
28826nhd             59.66      1.005762E-02       q_nhd
27304nhd             94.84      6.326760E-03       q_nhd
27798nhd             56.35      1.064820E-02       q_nhd
25791nhd             66.71      8.994180E-03       q_nhd
24288nhd             46.86      1.280346E-02       q_nhd
20777nhd             70.34      8.529600E-03       q_nhd
38281nhd            323.09      1.857060E-03       q_nhd
40283nhd             41.41      1.448838E-02       q_nhd
47276nhd             48.87      1.227762E-02       q_nhd
29261nhd             78.75      7.619280E-03       q_nhd
31256nhd             32.80      1.829292E-02       q_nhd
34252nhd             44.14      1.359288E-02       q_nhd
38243nhd             26.89      2.231178E-02       q_nhd
38742nhd             19.75      3.038004E-02       q_nhd
41245nhd             63.15      9.500880E-03       q_nhd
14242nhd             22.56      2.659032E-02       q_nhd
12241nhd             11.34      5.292546E-02       q_nhd
10736nhd              6.62      9.068514E-02       q_nhd
10226nhd             14.44      4.156506E-02       q_nhd
8221nhd              14.87      4.035918E-02       q_nhd
8718nhd              63.43      9.459120E-03       q_nhd
16195nhd            201.57      2.976600E-03       q_nhd
20188nhd             24.56      2.443086E-02       q_nhd
15763nhd             26.14      2.295264E-02       q_nhd
17265nhd             16.27      3.686724E-02       q_nhd
18266nhd             19.10      3.142182E-02       q_nhd
24747nhd            112.02      5.356200E-03       q_nhd
24743nhd             30.56      1.963392E-02       q_nhd
30226nhd            117.69      5.098320E-03       q_nhd
32234nhd            161.53      3.714600E-03       q_nhd
33230nhd             20.38      2.943642E-02       q_nhd
38720nhd            183.64      3.267300E-03       q_nhd
43725nhd            150.34      3.990900E-03       q_nhd
45224nhd             67.55      8.882340E-03       q_nhd
49708nhd             45.07      1.331388E-02       q_nhd
58208nhd            211.53      2.836440E-03       q_nhd
9692nhd             118.18      5.077080E-03       q_nhd
9672nhd              21.66      2.770350E-02       q_nhd
8671nhd              19.15      3.132654E-02       q_nhd
13678nhd             65.91      9.103800E-03       q_nhd
13168nhd             88.12      6.808860E-03       q_nhd
12146nhd             32.01      1.874544E-02       q_nhd
20166nhd            120.54      4.977540E-03       q_nhd
21166nhd             51.71      1.160358E-02       q_nhd
28668nhd             38.67      1.551708E-02       q_nhd
33670nhd             35.52      1.688958E-02       q_nhd
14139nhd             39.70      1.511166E-02       q_nhd
27142nhd             33.40      1.796460E-02       q_nhd
31148nhd             48.61      1.234434E-02       q_nhd
31140nhd             26.33      2.279058E-02       q_nhd
32139nhd             24.90      2.409936E-02       q_nhd
33137nhd             31.85      1.883676E-02       q_nhd
37147nhd             28.74      2.087508E-02       q_nhd
46131nhd            135.70      4.421520E-03       q_nhd
51125nhd             31.28      1.917876E-02       q_nhd
51624nhd             15.60      3.846966E-02       q_nhd
33114nhd             29.21      2.053770E-02       q_nhd
34617nhd             27.72      2.164314E-02       q_nhd
46625nhd             15.24      3.937602E-02       q_nhd
30095nhd              8.16      7.354566E-02       q_nhd
31095nhd              9.86      6.087294E-02       q_nhd
38098nhd             25.92      2.314512E-02       q_nhd
35084nhd             12.79      4.692300E-02       q_nhd
43095nhd             19.66      3.052332E-02       q_nhd
48607nhd             19.38      3.095958E-02       q_nhd
54103nhd             14.36      4.178736E-02       q_nhd
60612nhd             12.33      4.866414E-02       q_nhd
57597nhd             20.23      2.965890E-02       q_nhd
62590nhd             59.96      1.000752E-02       q_nhd
64088nhd             94.29      6.363000E-03       q_nhd
60066nhd            705.88      8.500200E-04       q_nhd
58563nhd             34.05      1.761972E-02       q_nhd
61565nhd            100.94      5.944260E-03       q_nhd
75579nhd            186.41      3.218700E-03       q_nhd
76104nhd             22.60      2.654994E-02       q_nhd
76100nhd             30.82      1.946604E-02       q_nhd
59056nhd            331.48      1.810080E-03       q_nhd
58054nhd             69.23      8.667240E-03       q_nhd
61558nhd              9.99      6.008292E-02       q_nhd
62053nhd            205.83      2.915040E-03       q_nhd
67061nhd             41.19      1.456830E-02       q_nhd
68064nhd             91.57      6.552540E-03       q_nhd
60530nhd            241.18      2.487780E-03       q_nhd
60525nhd             18.55      3.233772E-02       q_nhd
73530nhd             57.77      1.038540E-02       q_nhd
70533nhd             98.27      6.105360E-03       q_nhd
73522nhd            108.47      5.531700E-03       q_nhd
74505nhd            171.38      3.500940E-03       q_nhd
74004nhd             81.93      7.323480E-03       q_nhd
64501nhd            556.24      1.078680E-03       q_nhd
65501nhd             93.94      6.387300E-03       q_nhd
43339nhd            200.41      2.993940E-03       q_nhd
41307nhd            182.58      3.286320E-03       q_nhd
28835nhd            199.99      3.000060E-03       q_nhd
29319nhd            516.14      1.162500E-03       q_nhd
10737nhd              5.38      1.115594E-01       q_nhd
16692nhd            113.18      5.301180E-03       q_nhd
46719nhd             88.42      6.785580E-03       q_nhd
31625nhd            470.73      1.274580E-03       q_nhd
32117nhd            248.30      2.416500E-03       q_nhd
35114nhd             31.68      1.893942E-02       q_nhd
39108nhd            227.74      2.634540E-03       q_nhd
58065nhd            784.66      7.646400E-04       q_nhd
66551nhd            158.51      3.785280E-03       q_nhd
68552nhd             66.97      8.959260E-03       q_nhd
60031nhd             16.25      3.692856E-02       q_nhd
71534nhd            161.51      3.714960E-03       q_nhd
78007nhd             57.19      1.049220E-02       q_nhd
19777nhd             60.42      9.929700E-03       q_nhd
85515nhd             60.00      1.000086E-02       q_nhd
34627nhd             27.77      2.160246E-02       q_nhd
q063_86              35.11      5.697010E-03       q_nwis
q063_87              38.06      5.255326E-03       q_nwis
q063_88              34.21      5.846448E-03       q_nwis
q063_89              47.75      4.188430E-03       q_nwis
q063_90              53.59      3.732040E-03       q_nwis
q063_91              50.62      3.950914E-03       q_nwis
q063_92              40.89      4.890622E-03       q_nwis
q063_93              43.09      4.641610E-03       q_nwis
q063_94              39.83      5.021626E-03       q_nwis
q063_95              31.74      6.302078E-03       q_nwis
q063_96              39.67      5.041338E-03       q_nwis
q063_97              41.87      4.776354E-03       q_nwis
q063_98              49.33      4.054718E-03       q_nwis
q063_99              40.51      4.936766E-03       q_nwis
q063_00              41.12      4.863340E-03       q_nwis
q063_01              39.17      5.105514E-03       q_nwis
q063_02              29.32      6.821390E-03       q_nwis
q063_03              43.22      4.627862E-03       q_nwis
q063_04              45.68      4.378590E-03       q_nwis
q063_05              48.35      4.136662E-03       q_nwis
q063_06              53.35      3.749088E-03       q_nwis
q063_07              51.08      3.915472E-03       q_nwis
q063_08              45.52      4.394132E-03       q_nwis
q063_09              47.91      4.174514E-03       q_nwis
q075_86              20.09      9.955664E-03       q_nwis
q075_87              25.97      7.701244E-03       q_nwis
q075_88              22.16      9.025292E-03       q_nwis
q075_89              47.50      4.210378E-03       q_nwis
q075_90              51.01      3.921116E-03       q_nwis
q075_91              39.25      5.094926E-03       q_nwis
q075_92              28.22      7.087964E-03       q_nwis
q075_93              33.01      6.058660E-03       q_nwis
q075_94              31.40      6.368454E-03       q_nwis
q075_95              19.57      1.021876E-02       q_nwis
q075_96              32.00      6.250108E-03       q_nwis
q075_97              33.51      5.968106E-03       q_nwis
q075_98              47.53      4.207470E-03       q_nwis
q075_99              35.51      5.632344E-03       q_nwis
q075_00              27.84      7.183542E-03       q_nwis
q075_01              37.32      5.359200E-03       q_nwis
q075_02              20.85      9.592556E-03       q_nwis
q075_03              46.69      4.283364E-03       q_nwis
q075_04              37.11      5.388904E-03       q_nwis
q075_05              38.14      5.243430E-03       q_nwis