pcf
* control data
 restart regularisation
    2230   15737       6    8685      37
18  2  single  point  1  0  0
   20.000       -3.0000      0.3  0.03  -9     999  lamforgive
      0.050  5.0  0.001
 0.1      1
    0  0.005  4  4  0.005  4
1  1  1  1 nojcosaveitn reisaveitn parsaveitn
* singular value decomposition
  1
  2200  5.000000e-007
  0
* parameter groups
Kp     relative   1.000000e-001  1.000000e-008  switch  2.000000e+000  parabolic
Kz     relative   1.000000e-001  1.000000e-008  switch  2.000000e+000  parabolic
Cond   relative   1.000000e-002  1.000000e-008  switch  2.000000e+000  parabolic
Rech   relative   1.000000e-002  0.000000e+000  switch  2.000000e+000  parabolic
EVT    relative   1.000000e-002  0.000000e+000  switch  2.000000e+000  parabolic
St_cond relative  1.000000e-002  1.000000e-008  switch  2.000000e+000  parabolic
* parameter data
dr1002   tied   factor   1.1951566E-02  1.16e-04   1.00e+02   cond   1   0   1
dr1004   tied   factor   2.3802706E-02  1.16e-04   1.00e+02   cond   1   0   1
dr1005   tied   factor   5.5791366E-02  1.16e-04   1.00e+02   cond   1   0   1
dr1006   tied   factor   6.8914650E-03  1.16e-04   1.00e+02   cond   1   0   1
dr1007   tied   factor   0.2970255      1.16e-04   1.00e+02   cond   1   0   1
dr1008   tied   factor   1.0267178E-02  1.16e-04   1.00e+02   cond   1   0   1
dr1009   tied   factor   1.4727660E-03  1.16e-04   1.00e+02   cond   1   0   1
dr54   tied   factor   0.1456639      1.16e-04   1.00e+02   cond   1   0   1
dr55   tied   factor   0.3437516      1.16e-04   1.00e+02   cond   1   0   1
dr56   tied   factor   7.5491282E-03  1.16e-04   1.00e+02   cond   1   0   1
dr57   tied   factor   1.1285521E-02  1.16e-04   1.00e+02   cond   1   0   1
dr60   tied   factor    22.28537      1.16e-04   1.00e+02   cond   1   0   1
dr61   tied   factor    9.997298      1.16e-04   1.00e+02   cond   1   0   1
dr62   tied   factor   0.1526919      1.16e-04   1.00e+02   cond   1   0   1
dr64   tied   factor   0.4280891      1.16e-04   1.00e+02   cond   1   0   1
dr66   tied   factor   9.1255029E-03  1.16e-04   1.00e+02   cond   1   0   1
dr67   tied   factor   8.5978401E-02  1.16e-04   1.00e+02   cond   1   0   1
dr69   tied   factor    1.024793      1.16e-04   1.00e+02   cond   1   0   1
dr73   tied   factor   0.5396988      1.16e-04   1.00e+02   cond   1   0   1
dr76   tied   factor   0.2007989      1.16e-04   1.00e+02   cond   1   0   1
dr77   tied   factor   0.7098402      1.16e-04   1.00e+02   cond   1   0   1
dr78   tied   factor    6.756217      1.16e-04   1.00e+02   cond   1   0   1
dr85   tied   factor   1.6022144E-02  1.16e-04   1.00e+02   cond   1   0   1
dr86   tied   factor   0.5426859      1.16e-04   1.00e+02   cond   1   0   1
etm1   fixed   factor   1.0000000E-06  1.00e-10   10   evt   1   0   1
kp3akx1   log   factor   5.9166596E-06  1.00e-09   1.17e-03   kp   1   0   1
kp3akx10   log   factor   9.5233708E-07  1.00e-09   1.17e-03   kp   1   0   1
kp3akx11   log   factor   1.4659651E-06  1.00e-09   1.17e-03   kp   1   0   1
kp3akx12   log   factor   3.1649922E-08  1.00e-09   1.17e-03   kp   1   0   1
kp3akx13   log   factor   3.2230129E-06  1.00e-09   1.17e-03   kp   1   0   1
kp3akx14   log   factor   6.7347504E-05  1.00e-09   1.17e-03   kp   1   0   1
kp3akx15   log   factor   3.4811916E-07  1.00e-09   1.17e-03   kp   1   0   1
kp3akx16   log   factor   1.2940427E-06  1.00e-09   1.17e-03   kp   1   0   1
kp3akx17   log   factor   3.1953618E-06  1.00e-09   1.17e-03   kp   1   0   1
kp3akx18   log   factor   6.0408428E-05  1.00e-09   1.17e-03   kp   1   0   1
kp3akx19   log   factor   1.7878191E-07  1.00e-09   1.17e-03   kp   1   0   1
kp3akx2   log   factor   1.8810683E-06  1.00e-09   1.17e-03   kp   1   0   1
kp3akx20   log   factor   1.6669914E-06  1.00e-09   1.17e-03   kp   1   0   1
kp3akx21   log   factor   1.0951940E-05  1.00e-09   1.17e-03   kp   1   0   1
kp3akx22   log   factor   1.3069180E-05  1.00e-09   1.17e-03   kp   1   0   1
kp3akx23   log   factor   5.5758116E-05  1.00e-09   1.17e-03   kp   1   0   1
kp3akx24   log   factor   9.8060524E-06  1.00e-09   1.17e-03   kp   1   0   1
kp3akx25   log   factor   1.4445721E-06  1.00e-09   1.17e-03   kp   1   0   1
kp3akx26   log   factor   1.0387426E-05  1.00e-09   1.17e-03   kp   1   0   1
kp3akx27   log   factor   2.6266331E-05  1.00e-09   1.17e-03   kp   1   0   1
kp3akx3   log   factor   5.1204198E-07  1.00e-09   1.17e-03   kp   1   0   1
kp3akx4   log   factor   1.1335602E-06  1.00e-09   1.17e-03   kp   1   0   1
kp3akx5   log   factor   5.6378829E-05  1.00e-09   1.17e-03   kp   1   0   1
kp3akx6   log   factor   6.0489610E-07  1.00e-09   1.17e-03   kp   1   0   1
kp3akx7   log   factor   1.7051350E-06  1.00e-09   1.17e-03   kp   1   0   1
kp3akx8   log   factor   5.7118201E-07  1.00e-09   1.17e-03   kp   1   0   1
kp3akx9   log   factor   1.1411630E-04  1.00e-09   1.17e-03   kp   1   0   1
kp3kx1   log   factor   5.6680069E-06  1.00e-09   1.17e-03   kp   1   0   1
kp3kx10   log   factor   4.5597171E-05  1.00e-09   1.17e-03   kp   1   0   1
kp3kx11   log   factor   2.0700245E-04  1.00e-09   1.17e-03   kp   1   0   1
kp3kx12   log   factor   8.6413835E-06  1.00e-09   1.17e-03   kp   1   0   1
kp3kx13   log   factor   1.0182952E-04  1.00e-09   1.17e-03   kp   1   0   1
kp3kx14   log   factor   4.7772254E-05  1.00e-09   1.17e-03   kp   1   0   1
kp3kx15   log   factor   6.3775663E-04  1.00e-09   1.17e-03   kp   1   0   1
kp3kx16   log   factor   3.6965764E-04  1.00e-09   1.17e-03   kp   1   0   1
kp3kx17   log   factor   5.0050610E-05  1.00e-09   1.17e-03   kp   1   0   1
kp3kx18   log   factor   3.1139339E-06  1.00e-09   1.17e-03   kp   1   0   1
kp3kx19   log   factor   6.0783088E-08  1.00e-09   1.17e-03   kp   1   0   1
kp3kx2   log   factor   1.7019718E-07  1.00e-09   1.17e-03   kp   1   0   1
kp3kx20   log   factor   8.8851617E-07  1.00e-09   1.17e-03   kp   1   0   1
kp3kx21   log   factor   2.3192286E-05  1.00e-09   1.17e-03   kp   1   0   1
kp3kx22   log   factor   5.1691278E-06  1.00e-09   1.17e-03   kp   1   0   1
kp3kx23   log   factor   2.2455655E-05  1.00e-09   1.17e-03   kp   1   0   1
kp3kx24   log   factor   5.8871314E-07  1.00e-09   1.17e-03   kp   1   0   1
kp3kx25   log   factor   1.5726021E-06  1.00e-09   1.17e-03   kp   1   0   1
kp3kx26   log   factor   2.1152770E-05  1.00e-09   1.17e-03   kp   1   0   1
kp3kx27   log   factor   2.8347867E-06  1.00e-09   1.17e-03   kp   1   0   1
kp3kx28   log   factor   3.0239601E-06  1.00e-09   1.17e-03   kp   1   0   1
kp3kx29   log   factor   6.6369330E-07  1.00e-09   1.17e-03   kp   1   0   1
kp3kx3   log   factor   4.3026890E-05  1.00e-09   1.17e-03   kp   1   0   1
kp3kx30   log   factor   4.8801925E-06  1.00e-09   1.17e-03   kp   1   0   1
kp3kx31   log   factor   6.8703353E-07  1.00e-09   1.17e-03   kp   1   0   1
kp3kx32   log   factor   1.3072563E-06  1.00e-09   1.17e-03   kp   1   0   1
kp3kx33   log   factor   1.1381971E-06  1.00e-09   1.17e-03   kp   1   0   1
kp3kx34   log   factor   1.7443793E-07  1.00e-09   1.17e-03   kp   1   0   1
kp3kx35   log   factor   7.8129645E-06  1.00e-09   1.17e-03   kp   1   0   1
kp3kx36   log   factor   1.7838665E-07  1.00e-09   1.17e-03   kp   1   0   1
kp3kx37   log   factor   5.9293164E-06  1.00e-09   1.17e-03   kp   1   0   1
kp3kx38   log   factor   4.6810990E-07  1.00e-09   1.17e-03   kp   1   0   1
kp3kx39   log   factor   3.7708271E-07  1.00e-09   1.17e-03   kp   1   0   1
kp3kx4   log   factor   6.7443170E-06  1.00e-09   1.17e-03   kp   1   0   1
kp3kx40   log   factor   1.1840289E-07  1.00e-09   1.17e-03   kp   1   0   1
kp3kx41   log   factor   1.5230492E-06  1.00e-09   1.17e-03   kp   1   0   1
kp3kx42   log   factor   4.3739639E-07  1.00e-09   1.17e-03   kp   1   0   1
kp3kx43   log   factor   3.5152228E-07  1.00e-09   1.17e-03   kp   1   0   1
kp3kx44   log   factor   4.8953500E-07  1.00e-09   1.17e-03   kp   1   0   1
kp3kx45   log   factor   1.9287682E-07  1.00e-09   1.17e-03   kp   1   0   1
kp3kx46   log   factor   1.6065815E-06  1.00e-09   1.17e-03   kp   1   0   1
kp3kx47   log   factor   2.1374845E-07  1.00e-09   1.17e-03   kp   1   0   1
kp3kx48   log   factor   2.6754819E-07  1.00e-09   1.17e-03   kp   1   0   1
kp3kx49   log   factor   1.3028584E-07  1.00e-09   1.17e-03   kp   1   0   1
kp3kx5   log   factor   1.4420647E-06  1.00e-09   1.17e-03   kp   1   0   1
kp3kx50   log   factor   1.6036515E-07  1.00e-09   1.17e-03   kp   1   0   1
kp3kx51   log   factor   4.4090659E-07  1.00e-09   1.17e-03   kp   1   0   1
kp3kx52   log   factor   6.4184918E-07  1.00e-09   1.17e-03   kp   1   0   1
kp3kx53   log   factor   6.6562600E-07  1.00e-09   1.17e-03   kp   1   0   1
kp3kx54   log   factor   1.6196863E-07  1.00e-09   1.17e-03   kp   1   0   1
kp3kx55   log   factor   9.0151085E-07  1.00e-09   1.17e-03   kp   1   0   1
kp3kx56   log   factor   7.5273198E-09  1.00e-09   1.17e-03   kp   1   0   1
kp3kx57   log   factor   1.6443375E-05  1.00e-09   1.17e-03   kp   1   0   1
kp3kx58   log   factor   1.9188259E-06  1.00e-09   1.17e-03   kp   1   0   1
kp3kx59   log   factor   1.8220377E-06  1.00e-09   1.17e-03   kp   1   0   1
kp3kx6   log   factor   1.3118363E-06  1.00e-09   1.17e-03   kp   1   0   1
kp3kx60   log   factor   6.0507683E-07  1.00e-09   1.17e-03   kp   1   0   1
kp3kx61   log   factor   4.8784250E-06  1.00e-09   1.17e-03   kp   1   0   1
kp3kx62   log   factor   1.0962640E-06  1.00e-09   1.17e-03   kp   1   0   1
kp3kx63   log   factor   8.8850678E-07  1.00e-09   1.17e-03   kp   1   0   1
kp3kx64   log   factor   2.2569649E-06  1.00e-09   1.17e-03   kp   1   0   1
kp3kx65   log   factor   9.5689025E-08  1.00e-09   1.17e-03   kp   1   0   1
kp3kx66   log   factor   4.3031847E-06  1.00e-09   1.17e-03   kp   1   0   1
kp3kx67   log   factor   4.6166253E-08  1.00e-09   1.17e-03   kp   1   0   1
kp3kx68   log   factor   1.0943378E-06  1.00e-09   1.17e-03   kp   1   0   1
kp3kx69   log   factor   3.0497545E-06  1.00e-09   1.17e-03   kp   1   0   1
kp3kx7   log   factor   4.2804665E-05  1.00e-09   1.17e-03   kp   1   0   1
kp3kx70   log   factor   1.9629904E-05  1.00e-09   1.17e-03   kp   1   0   1
kp3kx71   log   factor   3.4790842E-05  1.00e-09   1.17e-03   kp   1   0   1
kp3kx72   log   factor   9.1100805E-06  1.00e-09   1.17e-03   kp   1   0   1
kp3kx73   log   factor   1.3108008E-06  1.00e-09   1.17e-03   kp   1   0   1
kp3kx74   log   factor   6.0562947E-07  1.00e-09   1.17e-03   kp   1   0   1
kp3kx75   log   factor   3.4844275E-07  1.00e-09   1.17e-03   kp   1   0   1
kp3kx76   log   factor   1.8244695E-07  1.00e-09   1.17e-03   kp   1   0   1
kp3kx77   log   factor   1.8417222E-05  1.00e-09   1.17e-03   kp   1   0   1
kp3kx8   log   factor   4.4780460E-05  1.00e-09   1.17e-03   kp   1   0   1
kp4akx1   log   factor   6.6231211E-08  1.00e-09   1.00e-03   kp   1   0   1
kp4akx2   log   factor   1.3050567E-07  1.00e-09   1.00e-03   kp   1   0   1
kp4akx3   log   factor   1.9903971E-07  1.00e-09   1.00e-03   kp   1   0   1
kp4akx4   log   factor   5.9698433E-08  1.00e-09   1.00e-03   kp   1   0   1
kp4akx5   log   factor   2.4946665E-07  1.00e-09   1.00e-03   kp   1   0   1
kp4akx6   log   factor   8.6926478E-07  1.00e-09   1.00e-03   kp   1   0   1
kp4akx7   log   factor   7.4760352E-07  1.00e-09   1.00e-03   kp   1   0   1
kp4akx8   log   factor   9.7504586E-08  1.00e-09   1.00e-03   kp   1   0   1
kp4akx9   log   factor   5.1377903E-07  1.00e-09   1.00e-03   kp   1   0   1
kp4kx1   log   factor   3.1059833E-07  1.00e-09   1.17e-03   kp   1   0   1
kp4kx10   log   factor   3.1445984E-05  1.00e-09   1.17e-03   kp   1   0   1
kp4kx11   log   factor   1.3909708E-07  1.00e-09   1.17e-03   kp   1   0   1
kp4kx12   log   factor   1.1291149E-07  1.00e-09   1.17e-03   kp   1   0   1
kp4kx13   log   factor   1.6795856E-07  1.00e-09   1.17e-03   kp   1   0   1
kp4kx14   log   factor   1.1576802E-05  1.00e-09   1.17e-03   kp   1   0   1
kp4kx15   log   factor   6.8635555E-06  1.00e-09   1.17e-03   kp   1   0   1
kp4kx16   log   factor   5.9878343E-06  1.00e-09   1.17e-03   kp   1   0   1
kp4kx17   log   factor   6.3209188E-06  1.00e-09   1.17e-03   kp   1   0   1
kp4kx18   log   factor   1.4331369E-06  1.00e-09   1.17e-03   kp   1   0   1
kp4kx19   log   factor   1.7714598E-06  1.00e-09   1.17e-03   kp   1   0   1
kp4kx2   log   factor   5.0507323E-07  1.00e-09   1.17e-03   kp   1   0   1
kp4kx20   log   factor   1.8073318E-06  1.00e-09   1.17e-03   kp   1   0   1
kp4kx21   log   factor   1.5018699E-05  1.00e-09   1.17e-03   kp   1   0   1
kp4kx22   log   factor   8.7989654E-06  1.00e-09   1.17e-03   kp   1   0   1
kp4kx23   log   factor   4.0781239E-06  1.00e-09   1.17e-03   kp   1   0   1
kp4kx24   log   factor   5.3499947E-05  1.00e-09   1.17e-03   kp   1   0   1
kp4kx25   log   factor   1.8347785E-05  1.00e-09   1.17e-03   kp   1   0   1
kp4kx26   log   factor   1.8592868E-06  1.00e-09   1.17e-03   kp   1   0   1
kp4kx27   log   factor   2.9167478E-06  1.00e-09   1.17e-03   kp   1   0   1
kp4kx28   log   factor   9.1101757E-06  1.00e-09   1.17e-03   kp   1   0   1
kp4kx29   log   factor   3.0904549E-06  1.00e-09   1.17e-03   kp   1   0   1
kp4kx3   log   factor   6.9110249E-07  1.00e-09   1.17e-03   kp   1   0   1
kp4kx30   log   factor   5.6959477E-06  1.00e-09   1.17e-03   kp   1   0   1
kp4kx31   log   factor   4.3575578E-06  1.00e-09   1.17e-03   kp   1   0   1
kp4kx32   log   factor   4.3460447E-05  1.00e-09   1.17e-03   kp   1   0   1
kp4kx33   log   factor   8.7493733E-06  1.00e-09   1.17e-03   kp   1   0   1
kp4kx34   log   factor   6.1755477E-06  1.00e-09   1.17e-03   kp   1   0   1
kp4kx35   log   factor   1.6287704E-06  1.00e-09   1.17e-03   kp   1   0   1
kp4kx36   log   factor   2.1503062E-04  1.00e-09   1.17e-03   kp   1   0   1
kp4kx37   log   factor   1.1137705E-05  1.00e-09   1.17e-03   kp   1   0   1
kp4kx38   log   factor   1.7448348E-05  1.00e-09   1.17e-03   kp   1   0   1
kp4kx39   log   factor   9.8440634E-06  1.00e-09   1.17e-03   kp   1   0   1
kp4kx4   log   factor   5.1778943E-07  1.00e-09   1.17e-03   kp   1   0   1
kp4kx40   log   factor   1.7584730E-05  1.00e-09   1.17e-03   kp   1   0   1
kp4kx41   log   factor   7.8230880E-06  1.00e-09   1.17e-03   kp   1   0   1
kp4kx42   log   factor   2.3604875E-05  1.00e-09   1.17e-03   kp   1   0   1
kp4kx43   log   factor   1.7413667E-04  1.00e-09   1.17e-03   kp   1   0   1
kp4kx44   log   factor   3.6763129E-07  1.00e-09   1.17e-03   kp   1   0   1
kp4kx45   log   factor   1.1383884E-07  1.00e-09   1.17e-03   kp   1   0   1
kp4kx46   log   factor   7.9833161E-07  1.00e-09   1.17e-03   kp   1   0   1
kp4kx47   log   factor   5.5448079E-06  1.00e-09   1.17e-03   kp   1   0   1
kp4kx48   log   factor   1.8977867E-04  1.00e-09   1.17e-03   kp   1   0   1
kp4kx49   log   factor   5.7335798E-05  1.00e-09   1.17e-03   kp   1   0   1
kp4kx5   log   factor   1.7543395E-07  1.00e-09   1.17e-03   kp   1   0   1
kp4kx50   log   factor   3.6370182E-05  1.00e-09   1.17e-03   kp   1   0   1
kp4kx51   log   factor   4.7772776E-07  1.00e-09   1.17e-03   kp   1   0   1
kp4kx52   log   factor   2.7337747E-07  1.00e-09   1.17e-03   kp   1   0   1
kp4kx54   log   factor   4.0187609E-07  1.00e-09   1.17e-03   kp   1   0   1
kp4kx55   log   factor   2.7284751E-07  1.00e-09   1.17e-03   kp   1   0   1
kp4kx56   log   factor   5.6650473E-06  1.00e-09   1.17e-03   kp   1   0   1
kp4kx57   log   factor   2.6742674E-06  1.00e-09   1.17e-03   kp   1   0   1
kp4kx58   log   factor   5.4768239E-07  1.00e-09   1.17e-03   kp   1   0   1
kp4kx59   log   factor   8.7177849E-08  1.00e-09   1.17e-03   kp   1   0   1
kp4kx6   log   factor   7.1644984E-07  1.00e-09   1.17e-03   kp   1   0   1
kp4kx60   log   factor   1.7796194E-07  1.00e-09   1.17e-03   kp   1   0   1
kp4kx61   log   factor   1.4428306E-06  1.00e-09   1.17e-03   kp   1   0   1
kp4kx62   log   factor   2.2659028E-07  1.00e-09   1.17e-03   kp   1   0   1
kp4kx63   log   factor   3.3332884E-07  1.00e-09   1.17e-03   kp   1   0   1
kp4kx64   log   factor   1.8786246E-07  1.00e-09   1.17e-03   kp   1   0   1
kp4kx65   log   factor   2.0552388E-07  1.00e-09   1.17e-03   kp   1   0   1
kp4kx66   log   factor   1.1701238E-06  1.00e-09   1.17e-03   kp   1   0   1
kp4kx67   log   factor   1.3390134E-07  1.00e-09   1.17e-03   kp   1   0   1
kp4kx68   log   factor   2.3752147E-06  1.00e-09   1.17e-03   kp   1   0   1
kp4kx69   log   factor   1.6234962E-07  1.00e-09   1.17e-03   kp   1   0   1
kp4kx7   log   factor   1.5685256E-05  1.00e-09   1.17e-03   kp   1   0   1
kp4kx70   log   factor   2.5705047E-07  1.00e-09   1.17e-03   kp   1   0   1
kp4kx71   log   factor   2.4822440E-07  1.00e-09   1.17e-03   kp   1   0   1
kp4kx72   log   factor   3.6755752E-07  1.00e-09   1.17e-03   kp   1   0   1
kp4kx73   log   factor   3.2264722E-07  1.00e-09   1.17e-03   kp   1   0   1
kp4kx8   log   factor   2.7731570E-07  1.00e-09   1.17e-03   kp   1   0   1
kp4kx9   log   factor   5.8145677E-07  1.00e-09   1.17e-03   kp   1   0   1
kp5akx1   log   factor   1.2896013E-05  1.00e-09   1.17e-03   kp   1   0   1
kp5akx10   log   factor   7.3762827E-07  1.00e-09   1.17e-03   kp   1   0   1
kp5akx11   log   factor   1.5133609E-07  1.00e-09   1.17e-03   kp   1   0   1
kp5akx12   log   factor   2.6078651E-06  1.00e-09   1.17e-03   kp   1   0   1
kp5akx13   log   factor   7.3039167E-07  1.00e-09   1.17e-03   kp   1   0   1
kp5akx14   log   factor   3.9533143E-06  1.00e-09   1.17e-03   kp   1   0   1
kp5akx15   log   factor   3.4901463E-06  1.00e-09   1.17e-03   kp   1   0   1
kp5akx16   log   factor   1.1817053E-05  1.00e-09   1.17e-03   kp   1   0   1
kp5akx17   log   factor   1.1819928E-05  1.00e-09   1.17e-03   kp   1   0   1
kp5akx18   log   factor   4.9306936E-06  1.00e-09   1.17e-03   kp   1   0   1
kp5akx19   log   factor   2.1940830E-06  1.00e-09   1.17e-03   kp   1   0   1
kp5akx2   log   factor   3.6834766E-05  1.00e-09   1.17e-03   kp   1   0   1
kp5akx20   log   factor   9.8459216E-06  1.00e-09   1.17e-03   kp   1   0   1
kp5akx21   log   factor   2.5715794E-06  1.00e-09   1.17e-03   kp   1   0   1
kp5akx22   log   factor   9.8728468E-07  1.00e-09   1.17e-03   kp   1   0   1
kp5akx23   log   factor   3.2962342E-05  1.00e-09   1.17e-03   kp   1   0   1
kp5akx24   log   factor   1.8042488E-05  1.00e-09   1.17e-03   kp   1   0   1
kp5akx25   log   factor   1.9252028E-05  1.00e-09   1.17e-03   kp   1   0   1
kp5akx26   log   factor   1.0146172E-05  1.00e-09   1.17e-03   kp   1   0   1
kp5akx27   log   factor   2.4041741E-06  1.00e-09   1.17e-03   kp   1   0   1
kp5akx3   log   factor   1.8726055E-05  1.00e-09   1.17e-03   kp   1   0   1
kp5akx4   log   factor   1.8733174E-06  1.00e-09   1.17e-03   kp   1   0   1
kp5akx5   log   factor   6.7844204E-06  1.00e-09   1.17e-03   kp   1   0   1
kp5akx6   log   factor   1.2305428E-06  1.00e-09   1.17e-03   kp   1   0   1
kp5akx7   log   factor   3.3281870E-05  1.00e-09   1.17e-03   kp   1   0   1
kp5akx8   log   factor   6.9023815E-08  1.00e-09   1.17e-03   kp   1   0   1
kp5akx9   log   factor   3.8637906E-07  1.00e-09   1.17e-03   kp   1   0   1
kp5kx1   log   factor   6.8923351E-06  1.00e-09   1.17e-03   kp   1   0   1
kp5kx10   log   factor   5.6861320E-05  1.00e-09   1.17e-03   kp   1   0   1
kp5kx100   log   factor   4.7662769E-06  1.00e-09   1.17e-03   kp   1   0   1
kp5kx101   log   factor   6.6940481E-07  1.00e-09   1.17e-03   kp   1   0   1
kp5kx102   log   factor   1.4746992E-05  1.00e-09   1.17e-03   kp   1   0   1
kp5kx103   log   factor   5.6223786E-05  1.00e-09   1.17e-03   kp   1   0   1
kp5kx104   log   factor   1.1700000E-03  1.00e-09   1.17e-03   kp   1   0   1
kp5kx105   log   factor   1.9898399E-06  1.00e-09   1.17e-03   kp   1   0   1
kp5kx106   log   factor   2.5007710E-07  1.00e-09   1.17e-03   kp   1   0   1
kp5kx107   log   factor   4.1512467E-06  1.00e-09   1.17e-03   kp   1   0   1
kp5kx108   log   factor   7.5861312E-05  1.00e-09   1.17e-03   kp   1   0   1
kp5kx109   log   factor   2.0866455E-04  1.00e-09   1.17e-03   kp   1   0   1
kp5kx11   log   factor   2.0066187E-07  1.00e-09   1.17e-03   kp   1   0   1
kp5kx110   log   factor   8.5012730E-08  1.00e-09   1.17e-03   kp   1   0   1
kp5kx111   log   factor   8.4354147E-08  1.00e-09   1.17e-03   kp   1   0   1
kp5kx112   log   factor   2.4779673E-06  1.00e-09   1.17e-03   kp   1   0   1
kp5kx113   log   factor   4.8543094E-07  1.00e-09   1.17e-03   kp   1   0   1
kp5kx115   log   factor   2.6486999E-04  1.00e-09   1.17e-03   kp   1   0   1
kp5kx12   log   factor   4.1171938E-05  1.00e-09   1.17e-03   kp   1   0   1
kp5kx13   log   factor   8.6716228E-06  1.00e-09   1.17e-03   kp   1   0   1
kp5kx14   log   factor   6.1047158E-07  1.00e-09   1.17e-03   kp   1   0   1
kp5kx15   log   factor   2.2572338E-06  1.00e-09   1.17e-03   kp   1   0   1
kp5kx16   log   factor   4.7001172E-07  1.00e-09   1.17e-03   kp   1   0   1
kp5kx17   log   factor   4.9007897E-08  1.00e-09   1.17e-03   kp   1   0   1
kp5kx18   log   factor   1.1965547E-04  1.00e-09   1.17e-03   kp   1   0   1
kp5kx19   log   factor   4.6387752E-05  1.00e-09   1.17e-03   kp   1   0   1
kp5kx2   log   factor   2.2733689E-07  1.00e-09   1.17e-03   kp   1   0   1
kp5kx20   log   factor   3.0600081E-06  1.00e-09   1.17e-03   kp   1   0   1
kp5kx21   log   factor   2.0091188E-05  1.00e-09   1.17e-03   kp   1   0   1
kp5kx22   log   factor   1.3793529E-04  1.00e-09   1.17e-03   kp   1   0   1
kp5kx23   log   factor   7.1332719E-06  1.00e-09   1.17e-03   kp   1   0   1
kp5kx24   log   factor   6.4513836E-06  1.00e-09   1.17e-03   kp   1   0   1
kp5kx25   log   factor   1.3946022E-06  1.00e-09   1.17e-03   kp   1   0   1
kp5kx26   log   factor   1.8152570E-06  1.00e-09   1.17e-03   kp   1   0   1
kp5kx27   log   factor   1.4598506E-05  1.00e-09   1.17e-03   kp   1   0   1
kp5kx28   log   factor   1.4690396E-07  1.00e-09   1.17e-03   kp   1   0   1
kp5kx29   log   factor   1.6773519E-06  1.00e-09   1.17e-03   kp   1   0   1
kp5kx3   log   factor   8.5757218E-07  1.00e-09   1.17e-03   kp   1   0   1
kp5kx30   log   factor   2.9951030E-06  1.00e-09   1.17e-03   kp   1   0   1
kp5kx31   log   factor   6.2477756E-07  1.00e-09   1.17e-03   kp   1   0   1
kp5kx32   log   factor   1.1508134E-06  1.00e-09   1.17e-03   kp   1   0   1
kp5kx33   log   factor   1.3845643E-05  1.00e-09   1.17e-03   kp   1   0   1
kp5kx34   log   factor   2.3497546E-06  1.00e-09   1.17e-03   kp   1   0   1
kp5kx35   log   factor   2.8129458E-06  1.00e-09   1.17e-03   kp   1   0   1
kp5kx36   log   factor   1.8633040E-06  1.00e-09   1.17e-03   kp   1   0   1
kp5kx37   log   factor   4.6740775E-07  1.00e-09   1.17e-03   kp   1   0   1
kp5kx38   log   factor   1.1263467E-07  1.00e-09   1.17e-03   kp   1   0   1
kp5kx39   log   factor   2.7497411E-06  1.00e-09   1.17e-03   kp   1   0   1
kp5kx4   log   factor   1.0622447E-06  1.00e-09   1.17e-03   kp   1   0   1
kp5kx40   log   factor   3.3485392E-06  1.00e-09   1.17e-03   kp   1   0   1
kp5kx41   log   factor   5.3091112E-07  1.00e-09   1.17e-03   kp   1   0   1
kp5kx42   log   factor   9.6245286E-08  1.00e-09   1.17e-03   kp   1   0   1
kp5kx43   log   factor   1.6079033E-06  1.00e-09   1.17e-03   kp   1   0   1
kp5kx44   log   factor   9.6374027E-07  1.00e-09   1.17e-03   kp   1   0   1
kp5kx45   log   factor   2.8842163E-07  1.00e-09   1.17e-03   kp   1   0   1
kp5kx46   log   factor   4.1480279E-07  1.00e-09   1.17e-03   kp   1   0   1
kp5kx47   log   factor   5.2867233E-06  1.00e-09   1.17e-03   kp   1   0   1
kp5kx48   log   factor   6.4973187E-05  1.00e-09   1.17e-03   kp   1   0   1
kp5kx49   log   factor   6.8535343E-07  1.00e-09   1.17e-03   kp   1   0   1
kp5kx5   log   factor   1.8589578E-05  1.00e-09   1.17e-03   kp   1   0   1
kp5kx50   log   factor   9.0980574E-07  1.00e-09   1.17e-03   kp   1   0   1
kp5kx51   log   factor   4.2298231E-07  1.00e-09   1.17e-03   kp   1   0   1
kp5kx52   log   factor   1.4781602E-06  1.00e-09   1.17e-03   kp   1   0   1
kp5kx53   log   factor   7.8622593E-06  1.00e-09   1.17e-03   kp   1   0   1
kp5kx54   log   factor   1.7326213E-06  1.00e-09   1.17e-03   kp   1   0   1
kp5kx55   log   factor   6.1566148E-06  1.00e-09   1.17e-03   kp   1   0   1
kp5kx56   log   factor   6.6858597E-06  1.00e-09   1.17e-03   kp   1   0   1
kp5kx57   log   factor   1.9555544E-06  1.00e-09   1.17e-03   kp   1   0   1
kp5kx58   log   factor   1.8517509E-05  1.00e-09   1.17e-03   kp   1   0   1
kp5kx59   log   factor   7.3059262E-07  1.00e-09   1.17e-03   kp   1   0   1
kp5kx6   log   factor   3.2786146E-06  1.00e-09   1.17e-03   kp   1   0   1
kp5kx60   log   factor   1.8001987E-07  1.00e-09   1.17e-03   kp   1   0   1
kp5kx61   log   factor   2.6024844E-05  1.00e-09   1.17e-03   kp   1   0   1
kp5kx62   log   factor   3.6234538E-08  1.00e-09   1.17e-03   kp   1   0   1
kp5kx63   log   factor   1.6596387E-07  1.00e-09   1.17e-03   kp   1   0   1
kp5kx65   log   factor   3.9111455E-06  1.00e-09   1.17e-03   kp   1   0   1
kp5kx66   log   factor   4.5004171E-07  1.00e-09   1.17e-03   kp   1   0   1
kp5kx67   log   factor   9.2301979E-06  1.00e-09   1.17e-03   kp   1   0   1
kp5kx68   log   factor   4.9363660E-04  1.00e-09   1.17e-03   kp   1   0   1
kp5kx69   log   factor   8.2462955E-08  1.00e-09   1.17e-03   kp   1   0   1
kp5kx7   log   factor   4.0697231E-06  1.00e-09   1.17e-03   kp   1   0   1
kp5kx70   log   factor   3.3864117E-06  1.00e-09   1.17e-03   kp   1   0   1
kp5kx71   log   factor   2.4275685E-06  1.00e-09   1.17e-03   kp   1   0   1
kp5kx72   log   factor   1.2795810E-07  1.00e-09   1.17e-03   kp   1   0   1
kp5kx73   log   factor   3.8321613E-07  1.00e-09   1.17e-03   kp   1   0   1
kp5kx74   log   factor   2.3494260E-07  1.00e-09   1.17e-03   kp   1   0   1
kp5kx75   log   factor   2.9863413E-08  1.00e-09   1.17e-03   kp   1   0   1
kp5kx76   log   factor   1.4996595E-06  1.00e-09   1.17e-03   kp   1   0   1
kp5kx77   log   factor   8.6513716E-08  1.00e-09   1.17e-03   kp   1   0   1
kp5kx78   log   factor   6.2150175E-06  1.00e-09   1.17e-03   kp   1   0   1
kp5kx79   log   factor   8.5190599E-06  1.00e-09   1.17e-03   kp   1   0   1
kp5kx8   log   factor   3.9501575E-06  1.00e-09   1.17e-03   kp   1   0   1
kp5kx80   log   factor   4.1125247E-07  1.00e-09   1.17e-03   kp   1   0   1
kp5kx81   log   factor   2.8249841E-06  1.00e-09   1.17e-03   kp   1   0   1
kp5kx82   log   factor   2.2313836E-06  1.00e-09   1.17e-03   kp   1   0   1
kp5kx83   log   factor   5.4895590E-06  1.00e-09   1.17e-03   kp   1   0   1
kp5kx84   log   factor   2.5489492E-06  1.00e-09   1.17e-03   kp   1   0   1
kp5kx85   log   factor   4.1740958E-07  1.00e-09   1.17e-03   kp   1   0   1
kp5kx86   log   factor   1.3502019E-06  1.00e-09   1.17e-03   kp   1   0   1
kp5kx87   log   factor   3.7520638E-06  1.00e-09   1.17e-03   kp   1   0   1
kp5kx89   log   factor   4.0558205E-06  1.00e-09   1.17e-03   kp   1   0   1
kp5kx9   log   factor   4.4309994E-07  1.00e-09   1.17e-03   kp   1   0   1
kp5kx90   log   factor   8.6960004E-07  1.00e-09   1.17e-03   kp   1   0   1
kp5kx91   log   factor   4.5711684E-08  1.00e-09   1.17e-03   kp   1   0   1
kp5kx92   log   factor   3.9372896E-07  1.00e-09   1.17e-03   kp   1   0   1
kp5kx93   log   factor   1.4018365E-08  1.00e-09   1.17e-03   kp   1   0   1
kp5kx94   log   factor   1.1653839E-07  1.00e-09   1.17e-03   kp   1   0   1
kp5kx95   log   factor   6.8018461E-07  1.00e-09   1.17e-03   kp   1   0   1
kp5kx96   log   factor   4.1053007E-06  1.00e-09   1.17e-03   kp   1   0   1
kp5kx97   log   factor   4.9714203E-06  1.00e-09   1.17e-03   kp   1   0   1
kp5kx98   log   factor   1.4438690E-05  1.00e-09   1.17e-03   kp   1   0   1
kp5kx99   log   factor   1.3347253E-06  1.00e-09   1.17e-03   kp   1   0   1
kp6akx1   log   factor   3.4853840E-06  1.00e-09   1.17e-03   kp   1   0   1
kp6akx10   log   factor   1.4369816E-06  1.00e-09   1.17e-03   kp   1   0   1
kp6akx11   log   factor   4.3347647E-06  1.00e-09   1.17e-03   kp   1   0   1
kp6akx12   log   factor   3.0706737E-06  1.00e-09   1.17e-03   kp   1   0   1
kp6akx13   log   factor   2.8888690E-06  1.00e-09   1.17e-03   kp   1   0   1
kp6akx14   log   factor   1.3998832E-05  1.00e-09   1.17e-03   kp   1   0   1
kp6akx15   log   factor   5.8621096E-05  1.00e-09   1.17e-03   kp   1   0   1
kp6akx16   log   factor   4.5981106E-06  1.00e-09   1.17e-03   kp   1   0   1
kp6akx17   log   factor   2.5411923E-05  1.00e-09   1.17e-03   kp   1   0   1
kp6akx18   log   factor   2.5327083E-05  1.00e-09   1.17e-03   kp   1   0   1
kp6akx2   log   factor   4.0854913E-06  1.00e-09   1.17e-03   kp   1   0   1
kp6akx3   log   factor   1.1023438E-06  1.00e-09   1.17e-03   kp   1   0   1
kp6akx4   log   factor   5.3827519E-06  1.00e-09   1.17e-03   kp   1   0   1
kp6akx5   log   factor   2.2788736E-06  1.00e-09   1.17e-03   kp   1   0   1
kp6akx6   log   factor   2.6104903E-06  1.00e-09   1.17e-03   kp   1   0   1
kp6akx7   log   factor   4.1023751E-06  1.00e-09   1.17e-03   kp   1   0   1
kp6akx8   log   factor   6.5011488E-06  1.00e-09   1.17e-03   kp   1   0   1
kp6akx9   log   factor   1.5941582E-06  1.00e-09   1.17e-03   kp   1   0   1
kp6kx1   log   factor   2.2896392E-06  1.00e-09   1.17e-03   kp   1   0   1
kp6kx10   log   factor   1.5244208E-06  1.00e-09   1.17e-03   kp   1   0   1
kp6kx100   log   factor   2.1883799E-06  1.00e-09   1.17e-03   kp   1   0   1
kp6kx101   log   factor   1.0354106E-06  1.00e-09   1.17e-03   kp   1   0   1
kp6kx102   log   factor   1.0511804E-07  1.00e-09   1.17e-03   kp   1   0   1
kp6kx103   log   factor   7.0834273E-06  1.00e-09   1.17e-03   kp   1   0   1