pcf
* control data
restart regularisation
   000000000091  000000068040  00000000000001  00000000000042  00000000000003
    000000000000001  000000000000001       single          point
         10.0      -3.0      0.15      0.02     10      999       lamforgive
         5.0       5.0    0.001        1           1
           0.1
           10     0.005      5         3       0.001      5
         0    0    0
* singular value decomposition
          1
     000000000091       1.0E-11
         0
* parameter groups
HydK     relative  0.01      0.0   always_2    2.0    parabolic
* parameter data
KzKh__Z002  Log   factor      +8.0000000000000000E-01     +1.0000000E-02  +5.0000000E+00  HydK  1.0    0.0
Ksat__Z002  Log   factor      +2.0235390000000000E-03     +1.0000000E-05  +1.0000000E+01  HydK  1.0    0.0
Ss____Z002  Fixed factor      +1.0000000000000000E-04     +1.0000000E-06  +1.5000000E-04  HydK  1.0    0.0
Por___Z002  Fixed factor      +3.8000000000000000E-01     +3.5000000E-01  +4.3000000E-01  HydK  1.0    0.0
A_VG__Z002  Fixed factor      +5.0500000000000000E-01     +5.0000000E-01  +7.5000000E+00  HydK  1.0    0.0
RMC___Z002  Fixed factor      +1.7000000000000000E-01     +1.0000000E-02  +4.5000000E-01  HydK  1.0    0.0
B_VG__Z002  Fixed factor      +7.0000000000000000E+00     +3.1000000E+00  +1.0000000E+01  HydK  1.0    0.0
Along_Z002  Fixed factor      +1.0000000000000000E+00     +1.0000000E-01  +2.0000000E+00  HydK  1.0    0.0
Atran_Z002  Fixed factor      +1.0000000000000000E-01     +1.0000000E-02  +2.0000000E-01  HydK  1.0    0.0
Cs____Z002  Fixed factor      +1.1200000000000000E+06     +1.1000000E+06  +1.4000000E+06  HydK  1.0    0.0
KtRMC_Z002  Fixed factor      +2.2000000000000000E-01     +1.8000000E-01  +2.6000000E-01  HydK  1.0    0.0
KtSat_Z002  Fixed factor      +2.0000000000000000E+00     +1.0000000E-01  +2.6000000E+00  HydK  1.0    0.0
Cw____Z002  Fixed factor      +4.2000000000000000E+06     +4.2000000E+06  +4.2100000E+06  HydK  1.0    0.0
KzKh__Z003  Log   factor      +2.0000000000000000E-01     +1.0000000E-02  +5.0000000E+00  HydK  1.0    0.0
Ksat__Z003  Log   factor      +2.9018700000000000E+00     +1.0000000E-05  +1.0000000E+01  HydK  1.0    0.0
Ss____Z003  Fixed factor      +1.0000000000000000E-04     +1.0000000E-06  +1.5000000E-04  HydK  1.0    0.0
Por___Z003  Fixed factor      +4.0000000000000000E-01     +3.5000000E-01  +4.3000000E-01  HydK  1.0    0.0
A_VG__Z003  Fixed factor      +8.4700000000000000E-01     +5.0000000E-01  +7.5000000E+00  HydK  1.0    0.0
RMC___Z003  Fixed factor      +1.5000000000000000E-01     +1.0000000E-02  +4.5000000E-01  HydK  1.0    0.0
B_VG__Z003  Fixed factor      +4.8000000000000000E+00     +3.1000000E+00  +1.0000000E+01  HydK  1.0    0.0
Along_Z003  Fixed factor      +1.0000000000000000E+00     +1.0000000E-01  +2.0000000E+00  HydK  1.0    0.0
Atran_Z003  Fixed factor      +1.0000000000000000E-01     +1.0000000E-02  +2.0000000E-01  HydK  1.0    0.0
Cs____Z003  Fixed factor      +1.1200000000000000E+06     +1.1000000E+06  +1.4000000E+06  HydK  1.0    0.0
KtRMC_Z003  Fixed factor      +2.2000000000000000E-01     +1.8000000E-01  +2.6000000E-01  HydK  1.0    0.0
KtSat_Z003  Fixed factor      +2.0000000000000000E+00     +1.0000000E-01  +2.6000000E+00  HydK  1.0    0.0
Cw____Z003  Fixed factor      +4.2000000000000000E+06     +4.2000000E+06  +4.2100000E+06  HydK  1.0    0.0
KzKh__Z004  Log   factor      +1.0000000000000000E+00     +1.0000000E-02  +5.0000000E+00  HydK  1.0    0.0
Ksat__Z004  Log   factor      +2.2767640000000000E-02     +1.0000000E-05  +1.0000000E+01  HydK  1.0    0.0
Ss____Z004  Fixed factor      +1.0000000000000000E-04     +1.0000000E-06  +1.5000000E-04  HydK  1.0    0.0
Por___Z004  Fixed factor      +4.0000000000000000E-01     +3.5000000E-01  +4.3000000E-01  HydK  1.0    0.0
A_VG__Z004  Fixed factor      +8.4700000000000000E-01     +5.0000000E-01  +7.5000000E+00  HydK  1.0    0.0
RMC___Z004  Fixed factor      +1.5000000000000000E-01     +1.0000000E-02  +4.5000000E-01  HydK  1.0    0.0
B_VG__Z004  Fixed factor      +4.8000000000000000E+00     +3.1000000E+00  +1.0000000E+01  HydK  1.0    0.0
Along_Z004  Fixed factor      +1.0000000000000000E+00     +1.0000000E-01  +2.0000000E+00  HydK  1.0    0.0
Atran_Z004  Fixed factor      +1.0000000000000000E-01     +1.0000000E-02  +2.0000000E-01  HydK  1.0    0.0
Cs____Z004  Fixed factor      +1.1200000000000000E+06     +1.1000000E+06  +1.4000000E+06  HydK  1.0    0.0
KtRMC_Z004  Fixed factor      +2.2000000000000000E-01     +1.8000000E-01  +2.6000000E-01  HydK  1.0    0.0
KtSat_Z004  Fixed factor      +2.0000000000000000E+00     +1.0000000E-01  +2.6000000E+00  HydK  1.0    0.0
Cw____Z004  Fixed factor      +4.2000000000000000E+06     +4.2000000E+06  +4.2100000E+06  HydK  1.0    0.0
KzKh__Z005  Log   factor      +1.0000000000000000E+00     +1.0000000E-02  +5.0000000E+00  HydK  1.0    0.0
Ksat__Z005  Log   factor      +5.8000000000000000E-03     +1.0000000E-05  +1.0000000E+01  HydK  1.0    0.0
Ss____Z005  Fixed factor      +1.0000000000000000E-04     +1.0000000E-06  +1.5000000E-04  HydK  1.0    0.0
Por___Z005  Fixed factor      +4.0000000000000000E-01     +3.5000000E-01  +4.3000000E-01  HydK  1.0    0.0
A_VG__Z005  Fixed factor      +8.4700000000000000E-01     +5.0000000E-01  +7.5000000E+00  HydK  1.0    0.0
RMC___Z005  Fixed factor      +1.5000000000000000E-01     +1.0000000E-02  +4.5000000E-01  HydK  1.0    0.0
B_VG__Z005  Fixed factor      +4.8000000000000000E+00     +3.1000000E+00  +1.0000000E+01  HydK  1.0    0.0
Along_Z005  Fixed factor      +1.0000000000000000E+00     +1.0000000E-01  +2.0000000E+00  HydK  1.0    0.0
Atran_Z005  Fixed factor      +1.0000000000000000E-01     +1.0000000E-02  +2.0000000E-01  HydK  1.0    0.0
Cs____Z005  Fixed factor      +1.1200000000000000E+06     +1.1000000E+06  +1.4000000E+06  HydK  1.0    0.0
KtRMC_Z005  Fixed factor      +2.2000000000000000E-01     +1.8000000E-01  +2.6000000E-01  HydK  1.0    0.0
KtSat_Z005  Fixed factor      +2.0000000000000000E+00     +1.0000000E-01  +2.6000000E+00  HydK  1.0    0.0
Cw____Z005  Fixed factor      +4.2000000000000000E+06     +4.2000000E+06  +4.2100000E+06  HydK  1.0    0.0
KzKh__Z006  Log   factor      +1.0000000000000000E+00     +1.0000000E-02  +5.0000000E+00  HydK  1.0    0.0
Ksat__Z006  Log   factor      +2.7216600000000000E+00     +1.0000000E-05  +1.0000000E+01  HydK  1.0    0.0
Ss____Z006  Fixed factor      +1.0000000000000000E-04     +1.0000000E-06  +1.5000000E-04  HydK  1.0    0.0
Por___Z006  Fixed factor      +4.0000000000000000E-01     +3.5000000E-01  +4.3000000E-01  HydK  1.0    0.0
A_VG__Z006  Fixed factor      +8.4700000000000000E-01     +5.0000000E-01  +7.5000000E+00  HydK  1.0    0.0
RMC___Z006  Fixed factor      +1.5000000000000000E-01     +1.0000000E-02  +4.5000000E-01  HydK  1.0    0.0
B_VG__Z006  Fixed factor      +4.8000000000000000E+00     +3.1000000E+00  +1.0000000E+01  HydK  1.0    0.0
Along_Z006  Fixed factor      +1.0000000000000000E+00     +1.0000000E-01  +2.0000000E+00  HydK  1.0    0.0
Atran_Z006  Fixed factor      +1.0000000000000000E-01     +1.0000000E-02  +2.0000000E-01  HydK  1.0    0.0
Cs____Z006  Fixed factor      +1.1200000000000000E+06     +1.1000000E+06  +1.4000000E+06  HydK  1.0    0.0
KtRMC_Z006  Fixed factor      +2.2000000000000000E-01     +1.8000000E-01  +2.6000000E-01  HydK  1.0    0.0
KtSat_Z006  Fixed factor      +2.0000000000000000E+00     +1.0000000E-01  +2.6000000E+00  HydK  1.0    0.0
Cw____Z006  Fixed factor      +4.2000000000000000E+06     +4.2000000E+06  +4.2100000E+06  HydK  1.0    0.0
KzKh__Z007  Log   factor      +1.0000000000000000E+00     +1.0000000E-02  +5.0000000E+00  HydK  1.0    0.0
Ksat__Z007  Log   factor      +5.8000000000000000E-03     +1.0000000E-05  +1.0000000E+01  HydK  1.0    0.0
Ss____Z007  Fixed factor      +1.0000000000000000E-04     +1.0000000E-06  +1.5000000E-04  HydK  1.0    0.0
Por___Z007  Fixed factor      +4.0000000000000000E-01     +3.5000000E-01  +4.3000000E-01  HydK  1.0    0.0
A_VG__Z007  Fixed factor      +8.4700000000000000E-01     +5.0000000E-01  +7.5000000E+00  HydK  1.0    0.0
RMC___Z007  Fixed factor      +1.5000000000000000E-01     +1.0000000E-02  +4.5000000E-01  HydK  1.0    0.0
B_VG__Z007  Fixed factor      +4.8000000000000000E+00     +3.1000000E+00  +1.0000000E+01  HydK  1.0    0.0
Along_Z007  Fixed factor      +1.0000000000000000E+00     +1.0000000E-01  +2.0000000E+00  HydK  1.0    0.0
Atran_Z007  Fixed factor      +1.0000000000000000E-01     +1.0000000E-02  +2.0000000E-01  HydK  1.0    0.0
Cs____Z007  Fixed factor      +1.1200000000000000E+06     +1.1000000E+06  +1.4000000E+06  HydK  1.0    0.0
KtRMC_Z007  Fixed factor      +2.2000000000000000E-01     +1.8000000E-01  +2.6000000E-01  HydK  1.0    0.0
KtSat_Z007  Fixed factor      +2.0000000000000000E+00     +1.0000000E-01  +2.6000000E+00  HydK  1.0    0.0
Cw____Z007  Fixed factor      +4.2000000000000000E+06     +4.2000000E+06  +4.2100000E+06  HydK  1.0    0.0
KzKh__Z008  Log   factor      +1.0000000000000000E+00     +1.0000000E-02  +5.0000000E+00  HydK  1.0    0.0
Ksat__Z008  Log   factor      +4.0000000000000000E-04     +1.0000000E-05  +1.0000000E+01  HydK  1.0    0.0
Ss____Z008  Fixed factor      +1.0000000000000000E-04     +1.0000000E-06  +1.5000000E-04  HydK  1.0    0.0
Por___Z008  Fixed factor      +4.0000000000000000E-01     +3.5000000E-01  +4.3000000E-01  HydK  1.0    0.0
A_VG__Z008  Fixed factor      +8.4700000000000000E-01     +5.0000000E-01  +7.5000000E+00  HydK  1.0    0.0
RMC___Z008  Fixed factor      +1.5000000000000000E-01     +1.0000000E-02  +4.5000000E-01  HydK  1.0    0.0
B_VG__Z008  Fixed factor      +4.8000000000000000E+00     +3.1000000E+00  +1.0000000E+01  HydK  1.0    0.0
Along_Z008  Fixed factor      +1.0000000000000000E+00     +1.0000000E-01  +2.0000000E+00  HydK  1.0    0.0
Atran_Z008  Fixed factor      +1.0000000000000000E-01     +1.0000000E-02  +2.0000000E-01  HydK  1.0    0.0
Cs____Z008  Fixed factor      +1.1200000000000000E+06     +1.1000000E+06  +1.4000000E+06  HydK  1.0    0.0
KtRMC_Z008  Fixed factor      +2.2000000000000000E-01     +1.8000000E-01  +2.6000000E-01  HydK  1.0    0.0
KtSat_Z008  Fixed factor      +2.0000000000000000E+00     +1.0000000E-01  +2.6000000E+00  HydK  1.0    0.0
Cw____Z008  Fixed factor      +4.2000000000000000E+06     +4.2000000E+06  +4.2100000E+06  HydK  1.0    0.0
* observation groups
regul_K
Temp_OBS
WL_OBS
* observation data
T8_2___0001  +010.14       +002.00     Temp_OBS
T8_3___0001  +010.01       +002.00     Temp_OBS
T8_4___0001  +010.34       +001.00     Temp_OBS
T8_5___0001  +010.72       +001.00     Temp_OBS
T8_6___0001  +010.93       +001.00     Temp_OBS
T18_2__0001  +010.14       +002.00     Temp_OBS
T18_3__0001  +010.01       +002.00     Temp_OBS
T18_4__0001  +010.34       +001.00     Temp_OBS
T18_5__0001  +010.72       +001.00     Temp_OBS
T18_6__0001  +010.93       +001.00     Temp_OBS
TIB1___0001  +011.00       +001.00     Temp_OBS
TIB2___0001  +010.81       +001.00     Temp_OBS
TIB3___0001  +009.84       +001.00     Temp_OBS
TIB4___0001  +012.10       +001.00     Temp_OBS
T8_2___0002  +009.94       +002.00     Temp_OBS
T8_3___0002  +010.01       +002.00     Temp_OBS
T8_4___0002  +010.34       +001.00     Temp_OBS
T8_5___0002  +010.72       +001.00     Temp_OBS
T8_6___0002  +010.93       +001.00     Temp_OBS
T18_2__0002  +009.94       +002.00     Temp_OBS
T18_3__0002  +010.01       +002.00     Temp_OBS
T18_4__0002  +010.34       +001.00     Temp_OBS
T18_5__0002  +010.72       +001.00     Temp_OBS
T18_6__0002  +010.93       +001.00     Temp_OBS
TIB1___0002  +011.00       +001.00     Temp_OBS
TIB2___0002  +010.81       +001.00     Temp_OBS
TIB3___0002  +009.84       +001.00     Temp_OBS
TIB4___0002  +012.10       +001.00     Temp_OBS
T8_2___0003  +009.84       +002.00     Temp_OBS
T8_3___0003  +010.01       +002.00     Temp_OBS
T8_4___0003  +010.34       +001.00     Temp_OBS
T8_5___0003  +010.72       +001.00     Temp_OBS
T8_6___0003  +010.93       +001.00     Temp_OBS
T18_2__0003  +009.84       +002.00     Temp_OBS
T18_3__0003  +010.01       +002.00     Temp_OBS
T18_4__0003  +010.34       +001.00     Temp_OBS
T18_5__0003  +010.72       +001.00     Temp_OBS
T18_6__0003  +010.93       +001.00     Temp_OBS
TIB1___0003  +011.00       +001.00     Temp_OBS
TIB2___0003  +010.81       +001.00     Temp_OBS
TIB3___0003  +009.84       +001.00     Temp_OBS
TIB4___0003  +012.10       +001.00     Temp_OBS
T8_2___0004  +009.64       +002.00     Temp_OBS
T8_3___0004  +010.01       +002.00     Temp_OBS
T8_4___0004  +010.34       +001.00     Temp_OBS
T8_5___0004  +010.72       +001.00     Temp_OBS
T8_6___0004  +010.93       +001.00     Temp_OBS
T18_2__0004  +009.64       +002.00     Temp_OBS
T18_3__0004  +010.01       +002.00     Temp_OBS
T18_4__0004  +010.34       +001.00     Temp_OBS
T18_5__0004  +010.72       +001.00     Temp_OBS
T18_6__0004  +010.93       +001.00     Temp_OBS
TIB1___0004  +011.00       +001.00     Temp_OBS
TIB2___0004  +010.81       +001.00     Temp_OBS
TIB3___0004  +009.84       +001.00     Temp_OBS
TIB4___0004  +012.10       +001.00     Temp_OBS
T8_2___0005  +009.45       +002.00     Temp_OBS
T8_3___0005  +009.82       +002.00     Temp_OBS
T8_4___0005  +010.34       +001.00     Temp_OBS
T8_5___0005  +010.72       +001.00     Temp_OBS
T8_6___0005  +010.93       +001.00     Temp_OBS
T18_2__0005  +009.45       +002.00     Temp_OBS
T18_3__0005  +009.82       +002.00     Temp_OBS
T18_4__0005  +010.34       +001.00     Temp_OBS
T18_5__0005  +010.72       +001.00     Temp_OBS
T18_6__0005  +010.93       +001.00     Temp_OBS
TIB1___0005  +011.00       +001.00     Temp_OBS
TIB2___0005  +010.81       +001.00     Temp_OBS
TIB3___0005  +009.84       +001.00     Temp_OBS
TIB4___0005  +012.10       +001.00     Temp_OBS
T8_2___0006  +009.15       +002.00     Temp_OBS
T8_3___0006  +009.82       +002.00     Temp_OBS
T8_4___0006  +010.34       +001.00     Temp_OBS
T8_5___0006  +010.72       +001.00     Temp_OBS
T8_6___0006  +010.93       +001.00     Temp_OBS
T18_2__0006  +009.15       +002.00     Temp_OBS
T18_3__0006  +009.82       +002.00     Temp_OBS
T18_4__0006  +010.34       +001.00     Temp_OBS
T18_5__0006  +010.72       +001.00     Temp_OBS
T18_6__0006  +010.93       +001.00     Temp_OBS
TIB1___0006  +011.00       +001.00     Temp_OBS
TIB2___0006  +010.81       +001.00     Temp_OBS
TIB3___0006  +009.84       +001.00     Temp_OBS
TIB4___0006  +012.10       +001.00     Temp_OBS
T8_2___0007  +009.05       +002.00     Temp_OBS
T8_3___0007  +009.72       +002.00     Temp_OBS
T8_4___0007  +010.34       +001.00     Temp_OBS
T8_5___0007  +010.72       +001.00     Temp_OBS
T8_6___0007  +010.93       +001.00     Temp_OBS
T18_2__0007  +009.05       +002.00     Temp_OBS
T18_3__0007  +009.72       +002.00     Temp_OBS
T18_4__0007  +010.34       +001.00     Temp_OBS
T18_5__0007  +010.72       +001.00     Temp_OBS
T18_6__0007  +010.93       +001.00     Temp_OBS
TIB1___0007  +011.00       +001.00     Temp_OBS
TIB2___0007  +010.81       +001.00     Temp_OBS
TIB3___0007  +009.84       +001.00     Temp_OBS
TIB4___0007  +012.11       +001.00     Temp_OBS
T8_2___0008  +008.85       +002.00     Temp_OBS
T8_3___0008  +009.72       +002.00     Temp_OBS
T8_4___0008  +010.34       +001.00     Temp_OBS
T8_5___0008  +010.72       +001.00     Temp_OBS
T8_6___0008  +010.93       +001.00     Temp_OBS
T18_2__0008  +008.85       +002.00     Temp_OBS
T18_3__0008  +009.72       +002.00     Temp_OBS
T18_4__0008  +010.34       +001.00     Temp_OBS
T18_5__0008  +010.72       +001.00     Temp_OBS
T18_6__0008  +010.93       +001.00     Temp_OBS
TIB1___0008  +011.00       +001.00     Temp_OBS
TIB2___0008  +010.81       +001.00     Temp_OBS
TIB3___0008  +009.84       +001.00     Temp_OBS
TIB4___0008  +012.11       +001.00     Temp_OBS
T8_2___0009  +008.65       +002.00     Temp_OBS
T8_3___0009  +009.62       +002.00     Temp_OBS
T8_4___0009  +010.34       +001.00     Temp_OBS
T8_5___0009  +010.72       +001.00     Temp_OBS
T8_6___0009  +010.93       +001.00     Temp_OBS
T18_2__0009  +008.65       +002.00     Temp_OBS
T18_3__0009  +009.62       +002.00     Temp_OBS
T18_4__0009  +010.34       +001.00     Temp_OBS
T18_5__0009  +010.72       +001.00     Temp_OBS
T18_6__0009  +010.93       +001.00     Temp_OBS
TIB1___0009  +011.00       +001.00     Temp_OBS
TIB2___0009  +010.81       +001.00     Temp_OBS
TIB3___0009  +009.84       +001.00     Temp_OBS
TIB4___0009  +012.11       +001.00     Temp_OBS
T8_2___0010  +008.45       +002.00     Temp_OBS
T8_3___0010  +009.52       +002.00     Temp_OBS
T8_4___0010  +010.34       +001.00     Temp_OBS
T8_5___0010  +010.72       +001.00     Temp_OBS
T8_6___0010  +010.93       +001.00     Temp_OBS
T18_2__0010  +008.45       +002.00     Temp_OBS
T18_3__0010  +009.52       +002.00     Temp_OBS
T18_4__0010  +010.34       +001.00     Temp_OBS
T18_5__0010  +010.72       +001.00     Temp_OBS
T18_6__0010  +010.93       +001.00     Temp_OBS
TIB1___0010  +011.00       +001.00     Temp_OBS
TIB2___0010  +010.81       +001.00     Temp_OBS
TIB3___0010  +009.84       +001.00     Temp_OBS
TIB4___0010  +012.11       +001.00     Temp_OBS
T8_2___0011  +008.45       +002.00     Temp_OBS
T8_3___0011  +009.32       +002.00     Temp_OBS
T8_4___0011  +010.34       +001.00     Temp_OBS
T8_5___0011  +010.62       +001.00     Temp_OBS
T8_6___0011  +010.93       +001.00     Temp_OBS
T18_2__0011  +008.45       +002.00     Temp_OBS
T18_3__0011  +009.32       +002.00     Temp_OBS
T18_4__0011  +010.34       +001.00     Temp_OBS
T18_5__0011  +010.62       +001.00     Temp_OBS
T18_6__0011  +010.93       +001.00     Temp_OBS
TIB1___0011  +011.00       +001.00     Temp_OBS
TIB2___0011  +010.81       +001.00     Temp_OBS
TIB3___0011  +009.84       +001.00     Temp_OBS
TIB4___0011  +012.11       +001.00     Temp_OBS
T8_2___0012  +008.55       +002.00     Temp_OBS
T8_3___0012  +009.32       +002.00     Temp_OBS
T8_4___0012  +010.34       +001.00     Temp_OBS
T8_5___0012  +010.62       +001.00     Temp_OBS
T8_6___0012  +010.93       +001.00     Temp_OBS
T18_2__0012  +008.55       +002.00     Temp_OBS
T18_3__0012  +009.32       +002.00     Temp_OBS
T18_4__0012  +010.34       +001.00     Temp_OBS
T18_5__0012  +010.62       +001.00     Temp_OBS
T18_6__0012  +010.93       +001.00     Temp_OBS
TIB1___0012  +011.00       +001.00     Temp_OBS
TIB2___0012  +010.81       +001.00     Temp_OBS
TIB3___0012  +009.84       +001.00     Temp_OBS
TIB4___0012  +012.11       +001.00     Temp_OBS
T8_2___0013  +008.95       +002.00     Temp_OBS
T8_3___0013  +009.23       +002.00     Temp_OBS
T8_4___0013  +010.34       +001.00     Temp_OBS
T8_5___0013  +010.62       +001.00     Temp_OBS
T8_6___0013  +010.93       +001.00     Temp_OBS
T18_2__0013  +008.95       +002.00     Temp_OBS
T18_3__0013  +009.23       +002.00     Temp_OBS
T18_4__0013  +010.34       +001.00     Temp_OBS
T18_5__0013  +010.62       +001.00     Temp_OBS
T18_6__0013  +010.93       +001.00     Temp_OBS
TIB1___0013  +011.00       +001.00     Temp_OBS
TIB2___0013  +010.81       +001.00     Temp_OBS
TIB3___0013  +009.84       +001.00     Temp_OBS
TIB4___0013  +012.11       +001.00     Temp_OBS
T8_2___0014  +009.55       +002.00     Temp_OBS
T8_3___0014  +009.23       +002.00     Temp_OBS
T8_4___0014  +010.34       +001.00     Temp_OBS
T8_5___0014  +010.62       +001.00     Temp_OBS
T8_6___0014  +010.93       +001.00     Temp_OBS
T18_2__0014  +009.55       +002.00     Temp_OBS
T18_3__0014  +009.23       +002.00     Temp_OBS
T18_4__0014  +010.34       +001.00     Temp_OBS
T18_5__0014  +010.62       +001.00     Temp_OBS
T18_6__0014  +010.93       +001.00     Temp_OBS
TIB1___0014  +011.00       +001.00     Temp_OBS
TIB2___0014  +010.81       +001.00     Temp_OBS
TIB3___0014  +009.84       +001.00     Temp_OBS
TIB4___0014  +012.11       +001.00     Temp_OBS
T8_2___0015  +010.34       +002.00     Temp_OBS
T8_3___0015  +009.52       +002.00     Temp_OBS
T8_4___0015  +010.34       +001.00     Temp_OBS
T8_5___0015  +010.62       +001.00     Temp_OBS
T8_6___0015  +010.93       +001.00     Temp_OBS
T18_2__0015  +010.34       +002.00     Temp_OBS
T18_3__0015  +009.52       +002.00     Temp_OBS
T18_4__0015  +010.34       +001.00     Temp_OBS
T18_5__0015  +010.62       +001.00     Temp_OBS
T18_6__0015  +010.93       +001.00     Temp_OBS
TIB1___0015  +011.00       +001.00     Temp_OBS
TIB2___0015  +010.81       +001.00     Temp_OBS
TIB3___0015  +009.84       +001.00     Temp_OBS
TIB4___0015  +012.11       +001.00     Temp_OBS
T8_2___0016  +011.13       +002.00     Temp_OBS
T8_3___0016  +009.62       +002.00     Temp_OBS
T8_4___0016  +010.24       +001.00     Temp_OBS
T8_5___0016  +010.62       +001.00     Temp_OBS
T8_6___0016  +010.93       +001.00     Temp_OBS
T18_2__0016  +011.13       +002.00     Temp_OBS
T18_3__0016  +009.62       +002.00     Temp_OBS
T18_4__0016  +010.24       +001.00     Temp_OBS
T18_5__0016  +010.62       +001.00     Temp_OBS
T18_6__0016  +010.93       +001.00     Temp_OBS
TIB1___0016  +011.00       +001.00     Temp_OBS
TIB2___0016  +010.81       +001.00     Temp_OBS
TIB3___0016  +009.93       +001.00     Temp_OBS
TIB4___0016  +012.11       +001.00     Temp_OBS
T8_2___0017  +012.02       +002.00     Temp_OBS
T8_3___0017  +010.01       +002.00     Temp_OBS
T8_4___0017  +010.24       +001.00     Temp_OBS
T8_5___0017  +010.62       +001.00     Temp_OBS
T8_6___0017  +010.74       +001.00     Temp_OBS
T18_2__0017  +012.02       +002.00     Temp_OBS
T18_3__0017  +010.01       +002.00     Temp_OBS
T18_4__0017  +010.24       +001.00     Temp_OBS
T18_5__0017  +010.62       +001.00     Temp_OBS
T18_6__0017  +010.74       +001.00     Temp_OBS
TIB1___0017  +011.00       +001.00     Temp_OBS
TIB2___0017  +010.81       +001.00     Temp_OBS
TIB3___0017  +009.84       +001.00     Temp_OBS
TIB4___0017  +012.11       +001.00     Temp_OBS
T8_2___0018  +012.82       +002.00     Temp_OBS
T8_3___0018  +010.21       +002.00     Temp_OBS
T8_4___0018  +010.24       +001.00     Temp_OBS
T8_5___0018  +010.62       +001.00     Temp_OBS
T8_6___0018  +010.74       +001.00     Temp_OBS
T18_2__0018  +012.82       +002.00     Temp_OBS
T18_3__0018  +010.21       +002.00     Temp_OBS
T18_4__0018  +010.24       +001.00     Temp_OBS
T18_5__0018  +010.62       +001.00     Temp_OBS
T18_6__0018  +010.74       +001.00     Temp_OBS
TIB1___0018  +011.00       +001.00     Temp_OBS
TIB2___0018  +010.81       +001.00     Temp_OBS
TIB3___0018  +009.93       +001.00     Temp_OBS
TIB4___0018  +012.12       +001.00     Temp_OBS
T8_2___0019  +013.41       +002.00     Temp_OBS
T8_3___0019  +010.60       +002.00     Temp_OBS
T8_4___0019  +010.24       +001.00     Temp_OBS
T8_5___0019  +010.62       +001.00     Temp_OBS
T8_6___0019  +010.74       +001.00     Temp_OBS
T18_2__0019  +013.41       +002.00     Temp_OBS
T18_3__0019  +010.60       +002.00     Temp_OBS
T18_4__0019  +010.24       +001.00     Temp_OBS
T18_5__0019  +010.62       +001.00     Temp_OBS
T18_6__0019  +010.74       +001.00     Temp_OBS
TIB1___0019  +011.00       +001.00     Temp_OBS
TIB2___0019  +010.81       +001.00     Temp_OBS
TIB3___0019  +009.93       +001.00     Temp_OBS
TIB4___0019  +012.11       +001.00     Temp_OBS
T8_2___0020  +013.81       +002.00     Temp_OBS
T8_3___0020  +011.00       +002.00     Temp_OBS
T8_4___0020  +010.24       +001.00     Temp_OBS
T8_5___0020  +010.62       +001.00     Temp_OBS
T8_6___0020  +010.74       +001.00     Temp_OBS
T18_2__0020  +013.81       +002.00     Temp_OBS
T18_3__0020  +011.00       +002.00     Temp_OBS
T18_4__0020  +010.24       +001.00     Temp_OBS
T18_5__0020  +010.62       +001.00     Temp_OBS
T18_6__0020  +010.74       +001.00     Temp_OBS
TIB1___0020  +011.00       +001.00     Temp_OBS
TIB2___0020  +010.81       +001.00     Temp_OBS
TIB3___0020  +009.93       +001.00     Temp_OBS
TIB4___0020  +012.12       +001.00     Temp_OBS
T8_2___0021  +013.91       +002.00     Temp_OBS
T8_3___0021  +011.29       +002.00     Temp_OBS
T8_4___0021  +010.24       +001.00     Temp_OBS
T8_5___0021  +010.62       +001.00     Temp_OBS
T8_6___0021  +010.74       +001.00     Temp_OBS
T18_2__0021  +013.91       +002.00     Temp_OBS
T18_3__0021  +011.29       +002.00     Temp_OBS
T18_4__0021  +010.24       +001.00     Temp_OBS
T18_5__0021  +010.62       +001.00     Temp_OBS
T18_6__0021  +010.74       +001.00     Temp_OBS
TIB1___0021  +011.00       +001.00     Temp_OBS
TIB2___0021  +010.81       +001.00     Temp_OBS
TIB3___0021  +009.93       +001.00     Temp_OBS
TIB4___0021  +012.12       +001.00     Temp_OBS
T8_2___0022  +013.81       +002.00     Temp_OBS
T8_3___0022  +011.59       +002.00     Temp_OBS
T8_4___0022  +010.24       +001.00     Temp_OBS
T8_5___0022  +010.62       +001.00     Temp_OBS
T8_6___0022  +010.74       +001.00     Temp_OBS
T18_2__0022  +013.81       +002.00     Temp_OBS
T18_3__0022  +011.59       +002.00     Temp_OBS
T18_4__0022  +010.24       +001.00     Temp_OBS
T18_5__0022  +010.62       +001.00     Temp_OBS
T18_6__0022  +010.74       +001.00     Temp_OBS
TIB1___0022  +010.81       +001.00     Temp_OBS
TIB2___0022  +010.81       +001.00     Temp_OBS
TIB3___0022  +009.93       +001.00     Temp_OBS
TIB4___0022  +012.12       +001.00     Temp_OBS
T8_2___0023  +013.51       +002.00     Temp_OBS
T8_3___0023  +011.68       +002.00     Temp_OBS
T8_4___0023  +010.24       +001.00     Temp_OBS
T8_5___0023  +010.62       +001.00     Temp_OBS
T8_6___0023  +010.74       +001.00     Temp_OBS
T18_2__0023  +013.51       +002.00     Temp_OBS
T18_3__0023  +011.68       +002.00     Temp_OBS
T18_4__0023  +010.24       +001.00     Temp_OBS
T18_5__0023  +010.62       +001.00     Temp_OBS
T18_6__0023  +010.74       +001.00     Temp_OBS
TIB1___0023  +011.00       +001.00     Temp_OBS
TIB2___0023  +010.81       +001.00     Temp_OBS
TIB3___0023  +009.93       +001.00     Temp_OBS
TIB4___0023  +012.12       +001.00     Temp_OBS
T8_2___0024  +013.12       +002.00     Temp_OBS
T8_3___0024  +011.78       +002.00     Temp_OBS
T8_4___0024  +010.24       +001.00     Temp_OBS
T8_5___0024  +010.62       +001.00     Temp_OBS
T8_6___0024  +010.74       +001.00     Temp_OBS
T18_2__0024  +013.12       +002.00     Temp_OBS
T18_3__0024  +011.78       +002.00     Temp_OBS
T18_4__0024  +010.24       +001.00     Temp_OBS
T18_5__0024  +010.62       +001.00     Temp_OBS
T18_6__0024  +010.74       +001.00     Temp_OBS
TIB1___0024  +010.81       +001.00     Temp_OBS
TIB2___0024  +010.81       +001.00     Temp_OBS
TIB3___0024  +009.93       +001.00     Temp_OBS
TIB4___0024  +012.13       +001.00     Temp_OBS
T8_2___0025  +012.82       +002.00     Temp_OBS
T8_3___0025  +011.78       +002.00     Temp_OBS
T8_4___0025  +010.24       +001.00     Temp_OBS
T8_5___0025  +010.62       +001.00     Temp_OBS
T8_6___0025  +010.74       +001.00     Temp_OBS
T18_2__0025  +012.82       +002.00     Temp_OBS
T18_3__0025  +011.78       +002.00     Temp_OBS
T18_4__0025  +010.24       +001.00     Temp_OBS
T18_5__0025  +010.62       +001.00     Temp_OBS
T18_6__0025  +010.74       +001.00     Temp_OBS
TIB1___0025  +010.81       +001.00     Temp_OBS
TIB2___0025  +010.81       +001.00     Temp_OBS
TIB3___0025  +009.93       +001.00     Temp_OBS
TIB4___0025  +012.13       +001.00     Temp_OBS
T8_2___0026  +012.42       +002.00     Temp_OBS
T8_3___0026  +011.78       +002.00     Temp_OBS
T8_4___0026  +010.24       +001.00     Temp_OBS
T8_5___0026  +010.62       +001.00     Temp_OBS
T8_6___0026  +010.74       +001.00     Temp_OBS
T18_2__0026  +012.42       +002.00     Temp_OBS
T18_3__0026  +011.78       +002.00     Temp_OBS
T18_4__0026  +010.24       +001.00     Temp_OBS
T18_5__0026  +010.62       +001.00     Temp_OBS
T18_6__0026  +010.74       +001.00     Temp_OBS
TIB1___0026  +010.81       +001.00     Temp_OBS
TIB2___0026  +010.81       +001.00     Temp_OBS
TIB3___0026  +009.93       +001.00     Temp_OBS
TIB4___0026  +012.13       +001.00     Temp_OBS
T8_2___0027  +012.02       +002.00     Temp_OBS
T8_3___0027  +011.78       +002.00     Temp_OBS
T8_4___0027  +010.34       +001.00     Temp_OBS
T8_5___0027  +010.62       +001.00     Temp_OBS
T8_6___0027  +010.74       +001.00     Temp_OBS
T18_2__0027  +012.02       +002.00     Temp_OBS
T18_3__0027  +011.78       +002.00     Temp_OBS
T18_4__0027  +010.34       +001.00     Temp_OBS
T18_5__0027  +010.62       +001.00     Temp_OBS
T18_6__0027  +010.74       +001.00     Temp_OBS
TIB1___0027  +010.81       +001.00     Temp_OBS
TIB2___0027  +010.81       +001.00     Temp_OBS
TIB3___0027  +009.93       +001.00     Temp_OBS
TIB4___0027  +012.13       +001.00     Temp_OBS
T8_2___0028  +011.63       +002.00     Temp_OBS
T8_3___0028  +011.68       +002.00     Temp_OBS
T8_4___0028  +010.34       +001.00     Temp_OBS
T8_5___0028  +010.62       +001.00     Temp_OBS
T8_6___0028  +010.74       +001.00     Temp_OBS
T18_2__0028  +011.63       +002.00     Temp_OBS
T18_3__0028  +011.68       +002.00     Temp_OBS
T18_4__0028  +010.34       +001.00     Temp_OBS
T18_5__0028  +010.62       +001.00     Temp_OBS
T18_6__0028  +010.74       +001.00     Temp_OBS
TIB1___0028  +010.81       +001.00     Temp_OBS
TIB2___0028  +010.81       +001.00     Temp_OBS
TIB3___0028  +009.93       +001.00     Temp_OBS
TIB4___0028  +012.13       +001.00     Temp_OBS
T8_2___0029  +011.33       +002.00     Temp_OBS
T8_3___0029  +011.59       +002.00     Temp_OBS
T8_4___0029  +010.34       +001.00     Temp_OBS
T8_5___0029  +010.62       +001.00     Temp_OBS
T8_6___0029  +010.74       +001.00     Temp_OBS