pcf
* control data
restart regularisation
   000000001100  000000024563  00000000000001  00000000021376  00000000000002
    000000000000029  000000000000006       single          point
         10.0      -3.0      0.15      0.02     10      999       lamforgive
         25.0       25.0    0.001        0           0
           0.1
           15    0.005      5         3       0.001      5
         0    0    0
* singular value decomposition
          1
     000000001100       1.0E-11
         0
* parameter groups
HydK     relative  0.01      0.0   always_2    2.0    parabolic
* parameter data
Hk2VkAnis   FIXED factor        1.000000000000000             0.99             100.0      HydK  1.0    0.0
BPP48_kL03  Fixed factor      +1.7517200000000000E+00     +1.0000000E-04  +5.1000000E+00  HydK  1.0    0.0
BPP62_kL03  Fixed factor      +1.1658300000000000E+00     +1.0000000E-04  +5.1000000E+00  HydK  1.0    0.0
BPP63_kL03  Fixed factor      +3.7164700000000000E+00     +1.0000000E-04  +5.1000000E+00  HydK  1.0    0.0
BPP66_kL03  Fixed factor      +5.0000000000000000E+00     +1.0000000E-04  +5.1000000E+00  HydK  1.0    0.0
BPP67_kL03  Fixed factor      +5.0000000000000000E+00     +1.0000000E-04  +5.1000000E+00  HydK  1.0    0.0
BPP72_kL03  Fixed factor      +5.0000000000000000E+00     +1.0000000E-04  +5.1000000E+00  HydK  1.0    0.0
BPP73_kL03  Fixed factor      +5.0000000000000000E+00     +1.0000000E-04  +5.1000000E+00  HydK  1.0    0.0
BPP74_kL03  Fixed factor      +5.0000000000000000E+00     +1.0000000E-04  +5.1000000E+00  HydK  1.0    0.0
BPP75_kL03  Fixed factor      +5.0000000000000000E+00     +1.0000000E-04  +5.1000000E+00  HydK  1.0    0.0
BPP11_kL04  Log   factor      +5.6640800000000000E-01     +1.0000000E-04  +1.0000000E+03  HydK  1.0    0.0
BPP12_kL04  Log   factor      +6.4050300000000000E-01     +1.0000000E-04  +1.0000000E+03  HydK  1.0    0.0
BPP13_kL04  Log   factor      +6.6122100000000000E-01     +1.0000000E-04  +1.0000000E+03  HydK  1.0    0.0
BPP14_kL04  Log   factor      +1.9855600000000000E+00     +1.0000000E-04  +1.0000000E+03  HydK  1.0    0.0
BPP15_kL04  Log   factor      +4.0959900000000000E+00     +1.0000000E-04  +1.0000000E+03  HydK  1.0    0.0
BPP16_kL04  Log   factor      +5.5124000000000000E-01     +1.0000000E-04  +1.0000000E+03  HydK  1.0    0.0
BPP18_kL04  Log   factor      +3.3119700000000000E+00     +1.0000000E-04  +1.0000000E+03  HydK  1.0    0.0
BPP19_kL04  Log   factor      +2.8630400000000000E+00     +1.0000000E-04  +1.0000000E+03  HydK  1.0    0.0
BPP20_kL04  Log   factor      +2.2686000000000000E+00     +1.0000000E-04  +1.0000000E+03  HydK  1.0    0.0
BPP30_kL04  Log   factor      +3.7777500000000000E-01     +1.0000000E-04  +1.0000000E+03  HydK  1.0    0.0
BPP31_kL04  Log   factor      +5.6472300000000000E-01     +1.0000000E-04  +1.0000000E+03  HydK  1.0    0.0
BPP32_kL04  Log   factor      +3.9832300000000000E-01     +1.0000000E-04  +1.0000000E+03  HydK  1.0    0.0
BPP33_kL04  Log   factor      +9.6961400000000000E-01     +1.0000000E-04  +1.0000000E+03  HydK  1.0    0.0
BPP34_kL04  Log   factor      +4.0116900000000000E+00     +1.0000000E-04  +1.0000000E+03  HydK  1.0    0.0
BPP35_kL04  Log   factor      +9.9319800000000000E-01     +1.0000000E-04  +1.0000000E+03  HydK  1.0    0.0
BPP36_kL04  Log   factor      +1.5927500000000000E+00     +1.0000000E-04  +1.0000000E+03  HydK  1.0    0.0
BPP37_kL04  Log   factor      +1.1684300000000000E+00     +1.0000000E-04  +1.0000000E+03  HydK  1.0    0.0
BPP38_kL04  Log   factor      +1.4876100000000000E+00     +1.0000000E-04  +1.0000000E+03  HydK  1.0    0.0
BPP39_kL04  Log   factor      +2.5320900000000000E+00     +1.0000000E-04  +1.0000000E+03  HydK  1.0    0.0
BPP48_kL04  Log   factor      +5.2975200000000000E-01     +1.0000000E-04  +1.0000000E+03  HydK  1.0    0.0
BPP49_kL04  Log   factor      +5.2334800000000000E-01     +1.0000000E-04  +1.0000000E+03  HydK  1.0    0.0
BPP50_kL04  Log   factor      +4.1844000000000000E-01     +1.0000000E-04  +1.0000000E+03  HydK  1.0    0.0
BPP51_kL04  Log   factor      +4.1365000000000000E-01     +1.0000000E-04  +1.0000000E+03  HydK  1.0    0.0
BPP52_kL04  Log   factor      +5.2211800000000000E-01     +1.0000000E-04  +1.0000000E+03  HydK  1.0    0.0
BPP53_kL04  Log   factor      +8.2668900000000000E-01     +1.0000000E-04  +1.0000000E+03  HydK  1.0    0.0
BPP54_kL04  Log   factor      +1.6245400000000000E+00     +1.0000000E-04  +1.0000000E+03  HydK  1.0    0.0
BPP55_kL04  Log   factor      +1.4879800000000000E+00     +1.0000000E-04  +1.0000000E+03  HydK  1.0    0.0
BPP62_kL04  Log   factor      +7.2311000000000000E-01     +1.0000000E-04  +1.0000000E+03  HydK  1.0    0.0
BPP63_kL04  Log   factor      +4.5228500000000000E-01     +1.0000000E-04  +1.0000000E+03  HydK  1.0    0.0
BPP64_kL04  Log   factor      +6.5021200000000000E-01     +1.0000000E-04  +1.0000000E+03  HydK  1.0    0.0
BPP65_kL04  Log   factor      +8.8409300000000000E-01     +1.0000000E-04  +1.0000000E+03  HydK  1.0    0.0
EC_12_kL04  Log   factor      +3.8150900000000000E-01     +1.0000000E-04  +1.0000000E+03  HydK  1.0    0.0
BPP1__kL05  Log   factor      +1.3565700000000000E+01     +1.0000000E-04  +1.0000000E+03  HydK  1.0    0.0
BPP2__kL05  Log   factor      +1.2943900000000000E+01     +1.0000000E-04  +1.0000000E+03  HydK  1.0    0.0
BPP11_kL05  Log   factor      +5.9110400000000000E+00     +1.0000000E-04  +1.0000000E+03  HydK  1.0    0.0
BPP12_kL05  Log   factor      +1.6564900000000000E+01     +1.0000000E-04  +1.0000000E+03  HydK  1.0    0.0
BPP13_kL05  Log   factor      +1.1047200000000000E+01     +1.0000000E-04  +1.0000000E+03  HydK  1.0    0.0
BPP14_kL05  Log   factor      +1.8461900000000000E+01     +1.0000000E-04  +1.0000000E+03  HydK  1.0    0.0
BPP15_kL05  Log   factor      +1.2720000000000000E+01     +1.0000000E-04  +1.0000000E+03  HydK  1.0    0.0
BPP17_kL05  Fixed factor      +5.7747500000000000E+02     +1.0000000E-04  +1.0000000E+03  HydK  1.0    0.0
BPP18_kL05  Log   factor      +3.5705700000000000E+01     +1.0000000E-04  +1.0000000E+03  HydK  1.0    0.0
BPP19_kL05  Log   factor      +2.3580600000000000E+01     +1.0000000E-04  +1.0000000E+03  HydK  1.0    0.0
BPP20_kL05  Log   factor      +1.5866600000000000E+01     +1.0000000E-04  +1.0000000E+03  HydK  1.0    0.0
BPP30_kL05  Log   factor      +7.3304400000000000E+00     +1.0000000E-04  +1.0000000E+03  HydK  1.0    0.0
BPP31_kL05  Log   factor      +1.2203200000000000E+01     +1.0000000E-04  +1.0000000E+03  HydK  1.0    0.0
BPP32_kL05  Log   factor      +1.1370300000000000E+01     +1.0000000E-04  +1.0000000E+03  HydK  1.0    0.0
BPP33_kL05  Log   factor      +5.6051500000000000E+00     +1.0000000E-04  +1.0000000E+03  HydK  1.0    0.0
BPP34_kL05  Log   factor      +1.0247000000000000E+02     +1.0000000E-04  +1.0000000E+03  HydK  1.0    0.0
BPP35_kL05  Log   factor      +1.1949800000000000E+02     +1.0000000E-04  +1.0000000E+03  HydK  1.0    0.0
BPP36_kL05  Log   factor      +8.4290000000000000E+01     +1.0000000E-04  +1.0000000E+03  HydK  1.0    0.0
BPP38_kL05  Log   factor      +2.7721900000000000E+01     +1.0000000E-04  +1.0000000E+03  HydK  1.0    0.0
BPP39_kL05  Log   factor      +2.5583600000000000E+01     +1.0000000E-04  +1.0000000E+03  HydK  1.0    0.0
BPP48_kL05  Log   factor      +9.9364600000000000E+00     +1.0000000E-04  +1.0000000E+03  HydK  1.0    0.0
BPP49_kL05  Log   factor      +1.0087900000000000E+01     +1.0000000E-04  +1.0000000E+03  HydK  1.0    0.0
BPP50_kL05  Log   factor      +7.0357800000000000E+00     +1.0000000E-04  +1.0000000E+03  HydK  1.0    0.0
BPP51_kL05  Log   factor      +2.5385800000000000E+00     +1.0000000E-04  +1.0000000E+03  HydK  1.0    0.0
BPP53_kL05  Log   factor      +9.2216400000000000E+00     +1.0000000E-04  +1.0000000E+03  HydK  1.0    0.0
BPP54_kL05  Log   factor      +1.9262200000000000E+01     +1.0000000E-04  +1.0000000E+03  HydK  1.0    0.0
BPP55_kL05  Log   factor      +2.4693400000000000E+01     +1.0000000E-04  +1.0000000E+03  HydK  1.0    0.0
BPP56_kL05  Log   factor      +2.0267200000000000E+01     +1.0000000E-04  +1.0000000E+03  HydK  1.0    0.0
BPP62_kL05  Log   factor      +1.6997200000000000E+01     +1.0000000E-04  +1.0000000E+03  HydK  1.0    0.0
BPP63_kL05  Log   factor      +1.6555000000000000E+01     +1.0000000E-04  +1.0000000E+03  HydK  1.0    0.0
BPP64_kL05  Log   factor      +3.1145800000000000E+01     +1.0000000E-04  +1.0000000E+03  HydK  1.0    0.0
BPP65_kL05  Log   factor      +2.4023400000000000E+01     +1.0000000E-04  +1.0000000E+03  HydK  1.0    0.0
BPP66_kL05  Log   factor      +3.1807900000000000E+01     +1.0000000E-04  +1.0000000E+03  HydK  1.0    0.0
BPP1__kL06  Log   factor      +6.5871580000000000E-02     +1.0000000E-04  +1.0000000E+03  HydK  1.0    0.0
BPP2__kL06  Log   factor      +7.8500920000000000E-02     +1.0000000E-04  +1.0000000E+03  HydK  1.0    0.0
BPP3__kL06  Log   factor      +1.0101200000000000E-01     +1.0000000E-04  +1.0000000E+03  HydK  1.0    0.0
BPP11_kL06  Log   factor      +6.8660320000000000E-02     +1.0000000E-04  +1.0000000E+03  HydK  1.0    0.0
BPP13_kL06  Log   factor      +6.9672290000000000E-02     +1.0000000E-04  +1.0000000E+03  HydK  1.0    0.0
BPP17_kL06  Log   factor      +2.1376100000000000E+00     +1.0000000E-04  +1.0000000E+03  HydK  1.0    0.0
BPP21_kL06  Log   factor      +1.3656900000000000E-01     +1.0000000E-04  +1.0000000E+03  HydK  1.0    0.0
BPP22_kL06  Log   factor      +8.3850850000000000E-02     +1.0000000E-04  +1.0000000E+03  HydK  1.0    0.0
BPP30_kL06  Log   factor      +7.0331140000000000E-02     +1.0000000E-04  +1.0000000E+03  HydK  1.0    0.0
BPP31_kL06  Log   factor      +5.1659010000000000E-02     +1.0000000E-04  +1.0000000E+03  HydK  1.0    0.0
BPP32_kL06  Log   factor      +5.2809170000000000E-02     +1.0000000E-04  +1.0000000E+03  HydK  1.0    0.0
BPP33_kL06  Log   factor      +3.5920070000000000E-02     +1.0000000E-04  +1.0000000E+03  HydK  1.0    0.0
BPP34_kL06  Log   factor      +1.4200120000000000E-02     +1.0000000E-04  +1.0000000E+03  HydK  1.0    0.0
BPP35_kL06  Log   factor      +2.0838300000000000E-01     +1.0000000E-04  +1.0000000E+03  HydK  1.0    0.0
BPP38_kL06  Log   factor      +4.0437800000000000E-01     +1.0000000E-04  +1.0000000E+03  HydK  1.0    0.0
BPP39_kL06  Log   factor      +2.6604500000000000E-01     +1.0000000E-04  +1.0000000E+03  HydK  1.0    0.0
BPP40_kL06  Log   factor      +1.7630600000000000E-01     +1.0000000E-04  +1.0000000E+03  HydK  1.0    0.0
BPP41_kL06  Log   factor      +1.9039600000000000E-01     +1.0000000E-04  +1.0000000E+03  HydK  1.0    0.0
BPP42_kL06  Log   factor      +1.8737300000000000E-01     +1.0000000E-04  +1.0000000E+03  HydK  1.0    0.0
BPP43_kL06  Log   factor      +1.5387500000000000E-01     +1.0000000E-04  +1.0000000E+03  HydK  1.0    0.0
BPP48_kL06  Log   factor      +6.5809240000000000E-02     +1.0000000E-04  +1.0000000E+03  HydK  1.0    0.0
BPP49_kL06  Log   factor      +5.3337870000000000E-02     +1.0000000E-04  +1.0000000E+03  HydK  1.0    0.0
BPP50_kL06  Log   factor      +4.1232470000000000E-02     +1.0000000E-04  +1.0000000E+03  HydK  1.0    0.0
BPP53_kL06  Log   factor      +2.0900700000000000E-01     +1.0000000E-04  +1.0000000E+03  HydK  1.0    0.0
BPP54_kL06  Log   factor      +3.9588600000000000E-01     +1.0000000E-04  +1.0000000E+03  HydK  1.0    0.0
BPP55_kL06  Log   factor      +5.1312600000000000E-01     +1.0000000E-04  +1.0000000E+03  HydK  1.0    0.0
BPP56_kL06  Log   factor      +8.8669020000000000E-02     +1.0000000E-04  +1.0000000E+03  HydK  1.0    0.0
BPP57_kL06  Log   factor      +1.5349800000000000E-01     +1.0000000E-04  +1.0000000E+03  HydK  1.0    0.0
BPP62_kL06  Log   factor      +4.3681460000000000E-02     +1.0000000E-04  +1.0000000E+03  HydK  1.0    0.0
BPP63_kL06  Log   factor      +1.0323400000000000E-01     +1.0000000E-04  +1.0000000E+03  HydK  1.0    0.0
BPP65_kL06  Log   factor      +2.4166300000000000E-01     +1.0000000E-04  +1.0000000E+03  HydK  1.0    0.0
BPP66_kL06  Log   factor      +5.3318400000000000E-01     +1.0000000E-04  +1.0000000E+03  HydK  1.0    0.0
BPP1__kL07  Log   factor      +1.9076800000000000E-01     +1.0000000E-04  +1.0000000E+03  HydK  1.0    0.0
BPP2__kL07  Log   factor      +1.2816400000000000E-01     +1.0000000E-04  +1.0000000E+03  HydK  1.0    0.0
BPP3__kL07  Log   factor      +1.6589000000000000E-01     +1.0000000E-04  +1.0000000E+03  HydK  1.0    0.0
BPP4__kL07  Log   factor      +3.4984800000000000E-01     +1.0000000E-04  +1.0000000E+03  HydK  1.0    0.0
BPP5__kL07  Log   factor      +4.8668500000000000E-01     +1.0000000E-04  +1.0000000E+03  HydK  1.0    0.0
BPP6__kL07  Log   factor      +7.8894600000000000E-01     +1.0000000E-04  +1.0000000E+03  HydK  1.0    0.0
BPP11_kL07  Log   factor      +1.1600900000000000E-01     +1.0000000E-04  +1.0000000E+03  HydK  1.0    0.0
BPP12_kL07  Log   factor      +1.2656100000000000E-01     +1.0000000E-04  +1.0000000E+03  HydK  1.0    0.0
BPP13_kL07  Log   factor      +1.3500000000000000E-01     +1.0000000E-04  +1.0000000E+03  HydK  1.0    0.0
BPP14_kL07  Log   factor      +3.5019700000000000E-01     +1.0000000E-04  +1.0000000E+03  HydK  1.0    0.0
BPP15_kL07  Log   factor      +1.0731300000000000E+00     +1.0000000E-04  +1.0000000E+03  HydK  1.0    0.0
BPP16_kL07  Log   factor      +8.8023200000000000E-01     +1.0000000E-04  +1.0000000E+03  HydK  1.0    0.0
BPP17_kL07  Log   factor      +1.0240900000000000E+00     +1.0000000E-04  +1.0000000E+03  HydK  1.0    0.0
BPP18_kL07  Log   factor      +4.4168100000000000E-01     +1.0000000E-04  +1.0000000E+03  HydK  1.0    0.0
BPP19_kL07  Log   factor      +3.9936100000000000E-01     +1.0000000E-04  +1.0000000E+03  HydK  1.0    0.0
BPP20_kL07  Log   factor      +1.2479500000000000E+00     +1.0000000E-04  +1.0000000E+03  HydK  1.0    0.0
BPP21_kL07  Log   factor      +1.9296000000000000E-01     +1.0000000E-04  +1.0000000E+03  HydK  1.0    0.0
BPP22_kL07  Log   factor      +1.4871700000000000E-01     +1.0000000E-04  +1.0000000E+03  HydK  1.0    0.0
BPP23_kL07  Log   factor      +2.5702800000000000E-01     +1.0000000E-04  +1.0000000E+03  HydK  1.0    0.0
BPP24_kL07  Log   factor      +2.1456800000000000E-01     +1.0000000E-04  +1.0000000E+03  HydK  1.0    0.0
BPP30_kL07  Log   factor      +8.1140320000000000E-02     +1.0000000E-04  +1.0000000E+03  HydK  1.0    0.0
BPP31_kL07  Log   factor      +1.0031000000000000E-01     +1.0000000E-04  +1.0000000E+03  HydK  1.0    0.0
BPP32_kL07  Log   factor      +1.0380900000000000E-01     +1.0000000E-04  +1.0000000E+03  HydK  1.0    0.0
BPP33_kL07  Log   factor      +1.0646900000000000E-01     +1.0000000E-04  +1.0000000E+03  HydK  1.0    0.0
BPP34_kL07  Log   factor      +7.2656220000000000E-02     +1.0000000E-04  +1.0000000E+03  HydK  1.0    0.0
BPP35_kL07  Log   factor      +5.3404700000000000E-01     +1.0000000E-04  +1.0000000E+03  HydK  1.0    0.0
BPP36_kL07  Log   factor      +2.7575100000000000E-01     +1.0000000E-04  +1.0000000E+03  HydK  1.0    0.0
BPP37_kL07  Log   factor      +2.9158200000000000E-01     +1.0000000E-04  +1.0000000E+03  HydK  1.0    0.0
BPP38_kL07  Log   factor      +2.9837100000000000E-01     +1.0000000E-04  +1.0000000E+03  HydK  1.0    0.0
BPP39_kL07  Log   factor      +3.2299100000000000E-01     +1.0000000E-04  +1.0000000E+03  HydK  1.0    0.0
BPP40_kL07  Log   factor      +1.8526600000000000E-01     +1.0000000E-04  +1.0000000E+03  HydK  1.0    0.0
BPP41_kL07  Log   factor      +3.0066900000000000E-01     +1.0000000E-04  +1.0000000E+03  HydK  1.0    0.0
BPP42_kL07  Log   factor      +1.4285500000000000E-01     +1.0000000E-04  +1.0000000E+03  HydK  1.0    0.0
BPP43_kL07  Log   factor      +1.1080600000000000E-01     +1.0000000E-04  +1.0000000E+03  HydK  1.0    0.0
BPP44_kL07  Log   factor      +2.6855500000000000E-01     +1.0000000E-04  +1.0000000E+03  HydK  1.0    0.0
BPP48_kL07  Log   factor      +1.1947300000000000E-01     +1.0000000E-04  +1.0000000E+03  HydK  1.0    0.0
BPP49_kL07  Log   factor      +1.0595700000000000E-01     +1.0000000E-04  +1.0000000E+03  HydK  1.0    0.0
BPP50_kL07  Log   factor      +1.2089400000000000E-01     +1.0000000E-04  +1.0000000E+03  HydK  1.0    0.0
BPP51_kL07  Log   factor      +4.8736490000000000E-02     +1.0000000E-04  +1.0000000E+03  HydK  1.0    0.0
BPP52_kL07  Log   factor      +1.4643900000000000E-01     +1.0000000E-04  +1.0000000E+03  HydK  1.0    0.0
BPP53_kL07  Log   factor      +2.0343600000000000E-01     +1.0000000E-04  +1.0000000E+03  HydK  1.0    0.0
BPP54_kL07  Log   factor      +3.2441300000000000E-01     +1.0000000E-04  +1.0000000E+03  HydK  1.0    0.0
BPP55_kL07  Log   factor      +1.9105700000000000E-01     +1.0000000E-04  +1.0000000E+03  HydK  1.0    0.0
BPP56_kL07  Log   factor      +1.7918800000000000E-01     +1.0000000E-04  +1.0000000E+03  HydK  1.0    0.0
BPP57_kL07  Log   factor      +1.7724500000000000E-01     +1.0000000E-04  +1.0000000E+03  HydK  1.0    0.0
BPP62_kL07  Log   factor      +7.5478810000000000E-02     +1.0000000E-04  +1.0000000E+03  HydK  1.0    0.0
BPP63_kL07  Log   factor      +1.1403000000000000E-01     +1.0000000E-04  +1.0000000E+03  HydK  1.0    0.0
BPP64_kL07  Log   factor      +2.1693200000000000E-01     +1.0000000E-04  +1.0000000E+03  HydK  1.0    0.0
BPP65_kL07  Log   factor      +2.9162400000000000E-01     +1.0000000E-04  +1.0000000E+03  HydK  1.0    0.0
BPP66_kL07  Log   factor      +1.2532900000000000E-01     +1.0000000E-04  +1.0000000E+03  HydK  1.0    0.0
EC_12_kL07  Log   factor      +2.1012610000000000E-02     +1.0000000E-04  +1.0000000E+03  HydK  1.0    0.0
BPP1__kL08  Log   factor      +5.4090000000000000E-01     +1.0000000E-04  +1.0000000E+03  HydK  1.0    0.0
BPP2__kL08  Log   factor      +8.4774700000000000E-01     +1.0000000E-04  +1.0000000E+03  HydK  1.0    0.0
BPP3__kL08  Log   factor      +4.9978400000000000E-01     +1.0000000E-04  +1.0000000E+03  HydK  1.0    0.0
BPP4__kL08  Log   factor      +5.3011700000000000E-01     +1.0000000E-04  +1.0000000E+03  HydK  1.0    0.0
BPP5__kL08  Log   factor      +1.3567200000000000E+00     +1.0000000E-04  +1.0000000E+03  HydK  1.0    0.0
BPP6__kL08  Log   factor      +2.5696000000000000E+00     +1.0000000E-04  +1.0000000E+03  HydK  1.0    0.0
BPP7__kL08  Log   factor      +1.5287200000000000E+00     +1.0000000E-04  +1.0000000E+03  HydK  1.0    0.0
BPP11_kL08  Log   factor      +6.1831900000000000E-01     +1.0000000E-04  +1.0000000E+03  HydK  1.0    0.0
BPP12_kL08  Log   factor      +6.7356000000000000E-01     +1.0000000E-04  +1.0000000E+03  HydK  1.0    0.0
BPP13_kL08  Log   factor      +4.2819100000000000E-01     +1.0000000E-04  +1.0000000E+03  HydK  1.0    0.0
BPP14_kL08  Log   factor      +9.8900260000000000E-02     +1.0000000E-04  +1.0000000E+03  HydK  1.0    0.0
BPP15_kL08  Log   factor      +1.8744600000000000E+00     +1.0000000E-04  +1.0000000E+03  HydK  1.0    0.0
BPP16_kL08  Log   factor      +5.3877400000000000E+01     +1.0000000E-04  +1.0000000E+03  HydK  1.0    0.0
BPP17_kL08  Log   factor      +6.4960300000000000E-01     +1.0000000E-04  +1.0000000E+03  HydK  1.0    0.0
BPP18_kL08  Log   factor      +1.2786800000000000E+00     +1.0000000E-04  +1.0000000E+03  HydK  1.0    0.0
BPP19_kL08  Log   factor      +1.5655700000000000E+00     +1.0000000E-04  +1.0000000E+03  HydK  1.0    0.0
BPP20_kL08  Log   factor      +1.5269800000000000E+00     +1.0000000E-04  +1.0000000E+03  HydK  1.0    0.0
BPP21_kL08  Log   factor      +7.2236600000000000E-01     +1.0000000E-04  +1.0000000E+03  HydK  1.0    0.0
BPP22_kL08  Log   factor      +7.1761800000000000E-01     +1.0000000E-04  +1.0000000E+03  HydK  1.0    0.0
BPP23_kL08  Log   factor      +3.5393200000000000E-01     +1.0000000E-04  +1.0000000E+03  HydK  1.0    0.0
BPP24_kL08  Log   factor      +5.8170300000000000E-01     +1.0000000E-04  +1.0000000E+03  HydK  1.0    0.0
BPP25_kL08  Log   factor      +1.6039500000000000E+00     +1.0000000E-04  +1.0000000E+03  HydK  1.0    0.0
BPP26_kL08  Log   factor      +1.0474100000000000E+00     +1.0000000E-04  +1.0000000E+03  HydK  1.0    0.0
BPP30_kL08  Log   factor      +5.6757200000000000E-01     +1.0000000E-04  +1.0000000E+03  HydK  1.0    0.0
BPP31_kL08  Log   factor      +5.8679800000000000E-01     +1.0000000E-04  +1.0000000E+03  HydK  1.0    0.0
BPP32_kL08  Log   factor      +3.2841200000000000E-01     +1.0000000E-04  +1.0000000E+03  HydK  1.0    0.0
BPP33_kL08  Log   factor      +3.5921130000000000E-02     +1.0000000E-04  +1.0000000E+03  HydK  1.0    0.0
BPP34_kL08  Log   factor      +1.1750000000000000E-01     +1.0000000E-04  +1.0000000E+03  HydK  1.0    0.0
BPP35_kL08  Log   factor      +8.8625000000000000E-01     +1.0000000E-04  +1.0000000E+03  HydK  1.0    0.0
BPP36_kL08  Log   factor      +8.1380800000000000E-01     +1.0000000E-04  +1.0000000E+03  HydK  1.0    0.0
BPP37_kL08  Log   factor      +1.2072000000000000E+00     +1.0000000E-04  +1.0000000E+03  HydK  1.0    0.0
BPP38_kL08  Log   factor      +1.5844400000000000E+00     +1.0000000E-04  +1.0000000E+03  HydK  1.0    0.0
BPP39_kL08  Log   factor      +1.2208300000000000E+00     +1.0000000E-04  +1.0000000E+03  HydK  1.0    0.0
BPP40_kL08  Log   factor      +6.2386000000000000E-01     +1.0000000E-04  +1.0000000E+03  HydK  1.0    0.0
BPP41_kL08  Log   factor      +5.4630300000000000E-01     +1.0000000E-04  +1.0000000E+03  HydK  1.0    0.0
BPP42_kL08  Log   factor      +8.7433100000000000E-01     +1.0000000E-04  +1.0000000E+03  HydK  1.0    0.0
BPP43_kL08  Log   factor      +1.3788600000000000E+00     +1.0000000E-04  +1.0000000E+03  HydK  1.0    0.0
BPP44_kL08  Log   factor      +1.2513000000000000E+00     +1.0000000E-04  +1.0000000E+03  HydK  1.0    0.0
BPP46_kL08  Log   factor      +3.3014500000000000E+00     +1.0000000E-04  +1.0000000E+03  HydK  1.0    0.0
BPP48_kL08  Log   factor      +4.9875500000000000E-01     +1.0000000E-04  +1.0000000E+03  HydK  1.0    0.0
BPP49_kL08  Log   factor      +6.0314400000000000E-01     +1.0000000E-04  +1.0000000E+03  HydK  1.0    0.0
BPP50_kL08  Log   factor      +6.4766700000000000E-01     +1.0000000E-04  +1.0000000E+03  HydK  1.0    0.0
BPP51_kL08  Log   factor      +4.6724400000000000E-01     +1.0000000E-04  +1.0000000E+03  HydK  1.0    0.0
BPP52_kL08  Log   factor      +7.6667600000000000E-01     +1.0000000E-04  +1.0000000E+03  HydK  1.0    0.0
BPP53_kL08  Log   factor      +9.1413300000000000E-01     +1.0000000E-04  +1.0000000E+03  HydK  1.0    0.0
BPP54_kL08  Log   factor      +1.4899600000000000E+00     +1.0000000E-04  +1.0000000E+03  HydK  1.0    0.0
BPP55_kL08  Log   factor      +1.2869400000000000E+00     +1.0000000E-04  +1.0000000E+03  HydK  1.0    0.0
BPP56_kL08  Log   factor      +1.0729700000000000E+00     +1.0000000E-04  +1.0000000E+03  HydK  1.0    0.0
BPP57_kL08  Log   factor      +7.1972800000000000E-01     +1.0000000E-04  +1.0000000E+03  HydK  1.0    0.0
BPP63_kL08  Log   factor      +6.4296800000000000E-01     +1.0000000E-04  +1.0000000E+03  HydK  1.0    0.0
BPP64_kL08  Log   factor      +1.0964700000000000E+00     +1.0000000E-04  +1.0000000E+03  HydK  1.0    0.0
BPP65_kL08  Log   factor      +1.8408000000000000E+00     +1.0000000E-04  +1.0000000E+03  HydK  1.0    0.0
BPP66_kL08  Log   factor      +1.3469000000000000E+00     +1.0000000E-04  +1.0000000E+03  HydK  1.0    0.0
BPP67_kL08  Log   factor      +1.0114100000000000E+00     +1.0000000E-04  +1.0000000E+03  HydK  1.0    0.0
EC_12_kL08  Log   factor      +7.0481900000000000E-01     +1.0000000E-08  +1.0000000E+03  HydK  1.0    0.0
BPP1__kL09  Log   factor      +9.2692500000000000E-01     +1.0000000E-04  +1.0000000E+03  HydK  1.0    0.0
BPP2__kL09  Log   factor      +8.3176600000000000E-01     +1.0000000E-04  +1.0000000E+03  HydK  1.0    0.0
BPP3__kL09  Log   factor      +1.2621400000000000E+00     +1.0000000E-04  +1.0000000E+03  HydK  1.0    0.0
BPP4__kL09  Log   factor      +8.4609300000000000E+01     +1.0000000E-04  +1.0000000E+03  HydK  1.0    0.0
BPP5__kL09  Log   factor      +3.2257600000000000E+02     +1.0000000E-04  +1.0000000E+03  HydK  1.0    0.0
BPP6__kL09  Log   factor      +7.5611300000000000E-01     +1.0000000E-04  +1.0000000E+03  HydK  1.0    0.0
BPP7__kL09  Log   factor      +3.4780600000000000E-01     +1.0000000E-04  +1.0000000E+03  HydK  1.0    0.0
BPP10_kL09  Log   factor      +4.1289500000000000E-01     +1.0000000E-04  +1.0000000E+03  HydK  1.0    0.0
BPP11_kL09  Log   factor      +4.4866600000000000E-01     +1.0000000E-04  +1.0000000E+03  HydK  1.0    0.0
BPP12_kL09  Log   factor      +6.1999000000000000E-01     +1.0000000E-04  +1.0000000E+03  HydK  1.0    0.0
BPP13_kL09  Log   factor      +1.0319100000000000E+00     +1.0000000E-04  +1.0000000E+03  HydK  1.0    0.0
BPP14_kL09  Log   factor      +3.1175300000000000E+00     +1.0000000E-04  +1.0000000E+03  HydK  1.0    0.0
BPP15_kL09  Log   factor      +1.7041900000000000E-01     +1.0000000E-04  +1.0000000E+03  HydK  1.0    0.0
BPP16_kL09  Log   factor      +1.7745600000000000E-01     +1.0000000E-04  +1.0000000E+03  HydK  1.0    0.0
BPP17_kL09  Log   factor      +2.7736000000000000E-01     +1.0000000E-04  +1.0000000E+03  HydK  1.0    0.0
BPP19_kL09  Log   factor      +3.3746600000000000E-01     +1.0000000E-04  +1.0000000E+03  HydK  1.0    0.0
BPP21_kL09  Log   factor      +1.0230600000000000E+00     +1.0000000E-04  +1.0000000E+03  HydK  1.0    0.0
BPP22_kL09  Log   factor      +9.2188000000000000E-01     +1.0000000E-04  +1.0000000E+03  HydK  1.0    0.0
BPP23_kL09  Log   factor      +1.0893900000000000E+00     +1.0000000E-04  +1.0000000E+03  HydK  1.0    0.0
BPP24_kL09  Log   factor      +2.5948900000000000E-01     +1.0000000E-04  +1.0000000E+03  HydK  1.0    0.0
BPP25_kL09  Log   factor      +2.8433000000000000E-01     +1.0000000E-04  +1.0000000E+03  HydK  1.0    0.0
BPP26_kL09  Log   factor      +9.1486200000000000E-01     +1.0000000E-04  +1.0000000E+03  HydK  1.0    0.0
BPP27_kL09  Log   factor      +4.8059200000000000E-01     +1.0000000E-04  +1.0000000E+03  HydK  1.0    0.0
BPP30_kL09  Log   factor      +3.6009400000000000E-01     +1.0000000E-04  +1.0000000E+03  HydK  1.0    0.0
BPP31_kL09  Log   factor      +5.6568500000000000E-01     +1.0000000E-04  +1.0000000E+03  HydK  1.0    0.0
BPP32_kL09  Log   factor      +6.6790600000000000E-01     +1.0000000E-04  +1.0000000E+03  HydK  1.0    0.0
BPP33_kL09  Log   factor      +4.3941080000000000E-02     +1.0000000E-04  +1.0000000E+03  HydK  1.0    0.0
BPP34_kL09  Log   factor      +5.0431600000000000E-02     +1.0000000E-04  +1.0000000E+03  HydK  1.0    0.0
BPP35_kL09  Log   factor      +1.5889000000000000E-01     +1.0000000E-04  +1.0000000E+03  HydK  1.0    0.0
BPP36_kL09  Log   factor      +1.8719500000000000E-01     +1.0000000E-04  +1.0000000E+03  HydK  1.0    0.0
BPP40_kL09  Log   factor      +7.0744400000000000E-01     +1.0000000E-04  +1.0000000E+03  HydK  1.0    0.0
BPP41_kL09  Log   factor      +9.3228100000000000E-01     +1.0000000E-04  +1.0000000E+03  HydK  1.0    0.0
BPP42_kL09  Log   factor      +1.5419500000000000E+00     +1.0000000E-04  +1.0000000E+03  HydK  1.0    0.0
BPP43_kL09  Log   factor      +8.3136200000000000E-01     +1.0000000E-04  +1.0000000E+03  HydK  1.0    0.0
BPP44_kL09  Log   factor      +6.7975500000000000E-01     +1.0000000E-04  +1.0000000E+03  HydK  1.0    0.0
BPP48_kL09  Log   factor      +5.6381200000000000E-01     +1.0000000E-04  +1.0000000E+03  HydK  1.0    0.0
BPP49_kL09  Log   factor      +3.0102700000000000E-01     +1.0000000E-04  +1.0000000E+03  HydK  1.0    0.0
BPP50_kL09  Log   factor      +3.2142800000000000E-01     +1.0000000E-04  +1.0000000E+03  HydK  1.0    0.0
BPP51_kL09  Log   factor      +1.0720600000000000E-01     +1.0000000E-04  +1.0000000E+03  HydK  1.0    0.0
BPP52_kL09  Log   factor      +9.2924950000000000E-02     +1.0000000E-04  +1.0000000E+03  HydK  1.0    0.0
BPP53_kL09  Log   factor      +2.4046100000000000E-01     +1.0000000E-04  +1.0000000E+03  HydK  1.0    0.0
BPP54_kL09  Log   factor      +2.2624800000000000E-01     +1.0000000E-04  +1.0000000E+03  HydK  1.0    0.0
BPP56_kL09  Log   factor      +4.0981100000000000E-01     +1.0000000E-04  +1.0000000E+03  HydK  1.0    0.0
BPP57_kL09  Log   factor      +6.1472300000000000E-01     +1.0000000E-04  +1.0000000E+03  HydK  1.0    0.0
BPP58_kL09  Log   factor      +1.3905300000000000E+00     +1.0000000E-04  +1.0000000E+03  HydK  1.0    0.0
BPP62_kL09  Log   factor      +4.1268500000000000E-01     +1.0000000E-04  +1.0000000E+03  HydK  1.0    0.0
BPP63_kL09  Log   factor      +2.7152100000000000E-01     +1.0000000E-04  +1.0000000E+03  HydK  1.0    0.0
BPP64_kL09  Log   factor      +1.2301600000000000E-01     +1.0000000E-04  +1.0000000E+03  HydK  1.0    0.0
BPP65_kL09  Log   factor      +9.4118960000000000E-02     +1.0000000E-04  +1.0000000E+03  HydK  1.0    0.0
BPP66_kL09  Log   factor      +1.4656400000000000E-01     +1.0000000E-04  +1.0000000E+03  HydK  1.0    0.0
BPP67_kL09  Log   factor      +1.3931500000000000E-01     +1.0000000E-04  +1.0000000E+03  HydK  1.0    0.0
BPP68_kL09  Log   factor      +1.1525700000000000E+00     +1.0000000E-04  +1.0000000E+03  HydK  1.0    0.0
EC_12_kL09  Log   factor      +9.7229300000000000E-04     +1.0000000E-07  +1.0000000E+03  HydK  1.0    0.0
BPP1__kL10  Log   factor      +8.6592800000000000E-01     +1.0000000E-04  +1.0000000E+03  HydK  1.0    0.0
BPP2__kL10  Log   factor      +6.7142700000000000E-01     +1.0000000E-04  +1.0000000E+03  HydK  1.0    0.0
BPP3__kL10  Log   factor      +1.1981100000000000E+00     +1.0000000E-04  +1.0000000E+03  HydK  1.0    0.0
BPP4__kL10  Log   factor      +8.0952300000000000E+00     +1.0000000E-04  +1.0000000E+03  HydK  1.0    0.0
BPP5__kL10  Log   factor      +8.9864800000000000E-01     +1.0000000E-04  +1.0000000E+03  HydK  1.0    0.0
BPP6__kL10  Log   factor      +5.9849600000000000E-01     +1.0000000E-04  +1.0000000E+03  HydK  1.0    0.0