pcf
* control data
      restart   regularisation
           41           11            1            2            3
            2            1       single        point            1            0            0
   10.000       2.0000      0.30000      3.00000E-02           10
   5.0000       5.0000      1.00000E-03
  0.10000      noaui
           50  1.00000E-03            4            4  1.00000E-03            4
            1            1            1
* parameter groups
 general      relative     1.00000E-02   0.0000         switch   2.0000     outside_pts
* parameter data
 k_rb         none   factor     1.00000E-03  1.20000E-04  1.20000E-02      general   1.0000       0.0000       1
 vk_cb        none   factor     2.00000E-07  1.00000E-08  1.00000E-06      general   1.0000       0.0000       1
 hk_2         none   factor     4.40000E-05  4.00000E-06  4.00000E-04      general   1.0000       0.0000       1
 rch_1        none   factor      31.536       30.000       80.000          general   1.0000       0.0000       1
 rch_2        none   factor      47.304       20.000       60.000          general   1.0000       0.0000       1
 pobs1        log    factor     4.00000E-04  3.00000E-05  3.00000E-03      general   1.0000       0.0000       1
 p2           log    factor     4.00000E-04  3.00000E-05  3.00000E-03      general   1.0000       0.0000       1
 p3           log    factor     4.00000E-04  3.00000E-05  3.00000E-03      general   1.0000       0.0000       1
 p4           log    factor     4.00000E-04  3.00000E-05  3.00000E-03      general   1.0000       0.0000       1
 p5           log    factor     4.00000E-04  3.00000E-05  3.00000E-03      general   1.0000       0.0000       1
 p6           log    factor     4.00000E-04  3.00000E-05  3.00000E-03      general   1.0000       0.0000       1
 p7           log    factor     4.00000E-04  3.00000E-05  3.00000E-03      general   1.0000       0.0000       1
 pobs2        log    factor     4.00000E-04  3.00000E-05  3.00000E-03      general   1.0000       0.0000       1
 p9           log    factor     4.00000E-04  3.00000E-05  3.00000E-03      general   1.0000       0.0000       1
 p10          log    factor     4.00000E-04  3.00000E-05  3.00000E-03      general   1.0000       0.0000       1
 pobs4        log    factor     4.00000E-04  3.00000E-05  3.00000E-03      general   1.0000       0.0000       1
 p12          log    factor     4.00000E-04  3.00000E-05  3.00000E-03      general   1.0000       0.0000       1
 p13          log    factor     4.00000E-04  3.00000E-05  3.00000E-03      general   1.0000       0.0000       1
 p14          log    factor     4.00000E-04  3.00000E-05  3.00000E-03      general   1.0000       0.0000       1
 p15          log    factor     4.00000E-04  3.00000E-05  3.00000E-03      general   1.0000       0.0000       1
 pobs3        log    factor     4.00000E-04  3.00000E-05  3.00000E-03      general   1.0000       0.0000       1
 pobs5        log    factor     4.00000E-04  3.00000E-05  3.00000E-03      general   1.0000       0.0000       1
 p18          log    factor     4.00000E-04  3.00000E-05  3.00000E-03      general   1.0000       0.0000       1
 p19          log    factor     4.00000E-04  3.00000E-05  3.00000E-03      general   1.0000       0.0000       1
 p20          log    factor     4.00000E-04  3.00000E-05  3.00000E-03      general   1.0000       0.0000       1
 p21          log    factor     4.00000E-04  3.00000E-05  3.00000E-03      general   1.0000       0.0000       1
 p22          log    factor     4.00000E-04  3.00000E-05  3.00000E-03      general   1.0000       0.0000       1
 p23          log    factor     4.00000E-04  3.00000E-05  3.00000E-03      general   1.0000       0.0000       1
 p24          log    factor     4.00000E-04  3.00000E-05  3.00000E-03      general   1.0000       0.0000       1
 p25          log    factor     4.00000E-04  3.00000E-05  3.00000E-03      general   1.0000       0.0000       1
 p26          log    factor     4.00000E-04  3.00000E-05  3.00000E-03      general   1.0000       0.0000       1
 p27          log    factor     4.00000E-04  3.00000E-05  3.00000E-03      general   1.0000       0.0000       1
 p28          log    factor     4.00000E-04  3.00000E-05  3.00000E-03      general   1.0000       0.0000       1
 p29          log    factor     4.00000E-04  3.00000E-05  3.00000E-03      general   1.0000       0.0000       1
 p30          log    factor     4.00000E-04  3.00000E-05  3.00000E-03      general   1.0000       0.0000       1
 p31          log    factor     4.00000E-04  3.00000E-05  3.00000E-03      general   1.0000       0.0000       1
 p32          log    factor     4.00000E-04  3.00000E-05  3.00000E-03      general   1.0000       0.0000       1
 p33          log    factor     4.00000E-04  3.00000E-05  3.00000E-03      general   1.0000       0.0000       1
 p34          log    factor     4.00000E-04  3.00000E-05  3.00000E-03      general   1.0000       0.0000       1
 p35          log    factor     4.00000E-04  3.00000E-05  3.00000E-03      general   1.0000       0.0000       1
 p36          log    factor     4.00000E-04  3.00000E-05  3.00000E-03      general   1.0000       0.0000       1
* observation groups
 head
 river
 prior_info
* observation data
 1.0            100.225       0.998752      head
 2.0            126.939       0.998752      head
 3.0            157.146       0.998752      head
 4.0            126.939       0.998752      head
 5.0            140.863       0.998752      head
 6.0            127.149       0.998752      head
 7.0            101.235       0.998752      head
 8.0            157.133       0.998752      head
 9.0            176.945       0.998752      head
 10.0           140.973       0.998752      head
 ss            -4.05404        2.50000      river
* model command line
 modrun1.bat
* model input/output
 tc1-new.sen.tpl tc1-new.sen
 points.file.tpl points.file.new
 modobs.ins tc1._os
* prior information
 PRIOR_VK_CB   1.0000     * vk_cb =  2.00000E-07  1.66667E+07 prior_info
 PRIOR_K_RB   1.0000     * k_rb =  1.00000E-03   3333.3     prior_info
* regularisation
   13.000       15.000    
   1.0000      1.00000E-06  1.00000E+06
   1.3000      1.00000E-02      0
