pcf
* control data
restart  estimation
28   168     5     0     2
1    1    single    point    1    0    0
5.0  2.0   0.3   0.03   10  
3.0  3.0   0.001
0.1
30   0.01  3     3      0.01  3
 1    1    1
* parameter groups
lg         relative     0.01     0.001     switch     2     parabolic
llg         relative     0.1     0.01     switch     2     parabolic
lllg         relative     1.0     0.1     switch     2     parabolic
ssm         relative     0.01     0.000001     switch     2     parabolic
sssm         relative    1e-13   1e-15        switch     2     parabolic
* parameter data
s21     fixed    factor     4.48211          1     5      llg      1      0       1
s22     fixed    factor   6.00000          3     6      llg      1      0       1
s24     fixed    factor   5.00000          2     5      llg      1      0       1
s26     fixed    factor     2.00000          2     6      llg      1      0       1
a21     fixed    factor    7.00000E-02      .07    .1     lg      1      0       1  
a22     fixed    factor  6.000000E-02      .06    .08     lg      1      0       1  
a24     fixed    factor  0.110000          0.08    0.12  lg      1      0       1  
a26     fixed    factor    9.013903E-02          0.05    0.1   lg      1      0       1  
c11     fixed    factor     1.00000          1     5      llg      1      0       1
c12     fixed    factor   7.80000          4     10      llg      1      0       1
c14     fixed    factor   12.0000          5     12      llg      1      0       1
c16     fixed    factor     3.15077          1      5       llg      1      0       1
lhg     fixed    factor    3.154712E-05     1E-6    4E-5      ssm      1      0       1
chc     fixed    factor    5.463000E-02     .01      .1      lg       1      0       1
nmac     fixed    factor   3.006355E-02    .005     .05    lg      1      0       1
mac_r   fixed    factor    0.150000        .03    .15       lg       1      0       1
LKs     fixed      factor   7.88530          5   20       llg      1      0       1
Koc     fixed     factor    183.379          100    250        llg     1      0      1
half    log      factor   30.0000          30    80       llg       1     0       1
h2     log     factor    2                 1     3      llg       1     0      1
expr    fixed     factor   3.646200E-02      0.01  0.1     lg         1     0      1
EST     fixed     factor   0.685870          0.1    1.0    lg       1      0      1
rsw     log     factor    0.3              0.25   0.35   lg       1      0      1
rst     log     factor    20.0             15     25     llg      1      0      1
Ea      log     factor    54000            50000  60000  lg     1      0      1
wsm     log     factor    0.8              0.6    0.99   lg       1      0      1
mrad    log     factor    10               1      20     llg      1      0      1
h_3     fixed     factor    15               1      30     llg      1      0      1
* observation groups
soil_conc
prof_conc
* observation data
sc1	1.568	1	soil_conc
sc2	0.179	1	soil_conc
sc3	0.189	1	soil_conc
sc4	0.025	1	soil_conc
sc5	0.007	1	soil_conc
sc6	0	1	soil_conc
sc7	0.012	1	soil_conc
sc8	0.009	1	soil_conc
sc9	0	1	soil_conc
sc12	0	1	soil_conc
sc13	0.14	1	soil_conc
sc14	0.021	1	soil_conc
sc15	0.022	1	soil_conc
sc16	0.03	1	soil_conc
sc17	0	1	soil_conc
sc18	0	1	soil_conc
sc19	0	1	soil_conc
sc20	0	1	soil_conc
sc23	0.39	1	soil_conc
sc24	0.139	1	soil_conc
sc25	0.08	1	soil_conc
sc26	0.028	1	soil_conc
sc27	0.011	1	soil_conc
sc28	0.003	1	soil_conc
sc29	0.001	1	soil_conc
sc30	0.001	1	soil_conc
sc31	0.001	1	soil_conc
sc34	0.18	1	soil_conc
sc35	0.061	1	soil_conc
sc36	0.046	1	soil_conc
sc37	0.011	1	soil_conc
sc38	0.012	1	soil_conc
sc39	0	1	soil_conc
sc42	0.098	1	soil_conc
sc43	0.079	1	soil_conc
sc44	0.044	1	soil_conc
sc45	0.024	1	soil_conc
sc46	0.008	1	soil_conc
sc47	0	1	soil_conc
sc50	0.056	1	soil_conc
sc51	0.075	1	soil_conc
sc52	0.037	1	soil_conc
sc53	0.008	1	soil_conc
sc54	0	1	soil_conc
sc55	0	1	soil_conc
sc56	0	1	soil_conc
sc59	0.976	1	soil_conc
sc60	0.056	1	soil_conc
sc61	0.013	1	soil_conc
sc62	0.008	1	soil_conc
sc63	0	1	soil_conc
sc64	0	1	soil_conc
sc65	0	1	soil_conc
sc68	0.121	1	soil_conc
sc69	0.052	1	soil_conc
sc70	0.02	1	soil_conc
sc71	0.006	1	soil_conc
sc72	0	1	soil_conc
sc73	0	1	soil_conc
sc74	0	1	soil_conc
sc77	0.104	1	soil_conc
sc78	0.056	1	soil_conc
sc79	0.013	1	soil_conc
sc80	0	1	soil_conc
sc81	0	1	soil_conc
sc82	0	1	soil_conc
sc83	0	1	soil_conc
sc86	0.156	1	soil_conc
sc87	0.115	1	soil_conc
sc88	0.078	1	soil_conc
sc89	0.062	1	soil_conc
sc90	0.014	1	soil_conc
sc91	0	1	soil_conc
sc92	0	1	soil_conc
sc95	0.427	1	soil_conc
sc96	0.062	1	soil_conc
sc97	0.03	1	soil_conc
sc100	0.19	1	soil_conc
sc101	0.04	1	soil_conc
sc102	0.013	1	soil_conc
sc103	0	1	soil_conc
sc104	0.01	1	soil_conc
sc105	0	1	soil_conc
sc106	0	1	soil_conc
sc109	0.108	1	soil_conc
sc110	0.071	1	soil_conc
sc111	0	1	soil_conc
sc112	0	1	soil_conc
sc113	0	1	soil_conc
sc114	0	1	soil_conc
sc115	0	1	soil_conc
sc118	0.056	1	soil_conc
sc119	0.032	1	soil_conc
sc120	0.019	1	soil_conc
sc121	0	1	soil_conc
sc122	0	1	soil_conc
sc123	0	1	soil_conc
sc124	0	1	soil_conc
sc127	-99	0	soil_conc
sc128	-99	0	soil_conc
sc129	-99	0	soil_conc
sc130	-99	0	soil_conc
sc131	-99	0	soil_conc
sc132	-99	0	soil_conc
sc133	-99	0	soil_conc
sc136	0.048	1	soil_conc
sc139	0.192	1	soil_conc
sc140	0.039	1	soil_conc
sc141	0.019	1	soil_conc
sc142	-99	0	soil_conc
sc143	-99	0	soil_conc
sc144	-99	0	soil_conc
sc147	0.143	1	soil_conc
sc148	0.052	1	soil_conc
sc149	0.021	1	soil_conc
sc150	-99	0	soil_conc
sc151	-99	0	soil_conc
sc152	-99	0	soil_conc
sc155	0.058	1	soil_conc
sc156	0.037	1	soil_conc
sc157	0.021	1	soil_conc
sc158	-99	0	soil_conc
sc159	-99	0	soil_conc
sc160	-99	0	soil_conc
sc163	-99	0	soil_conc
sc164	-99	0	soil_conc
sc165	-99	0	soil_conc
sc166	-99	0	soil_conc
sc167	-99	0	soil_conc
sc168	-99	0	soil_conc
sc171	0.168	1	soil_conc
sc172	0.022	1	soil_conc
sc173	0.006	1	soil_conc
sc176	0.157	1	soil_conc
sc177	0.05	1	soil_conc
sc178	0.013	1	soil_conc
sc179	0.005	1	soil_conc
sc180	-99	0	soil_conc
sc181	-99	0	soil_conc
sc184	0.056	1	soil_conc
sc185	0.042	1	soil_conc
sc186	0.021	1	soil_conc
sc187	-99	0	soil_conc
sc188	-99	0	soil_conc
sc189	-99	0	soil_conc
spc1	3.0036	0.5	prof_conc
spc2	0.35519	0.5	prof_conc
spc3	1.00768	0.5	prof_conc
spc4	0.47208	0.5	prof_conc
spc5	0.39629	0.5	prof_conc
spc6	0.26394	0.5	prof_conc
spc7	1.53415	0.5	prof_conc
spc8	0.29464	0.5	prof_conc
spc9	0.25163	0.5	prof_conc
spc10	0.68413	0.5	prof_conc
spc11	0.75435	0.5	prof_conc
spc12	0.37668	0.5	prof_conc
spc13	0.25955	0.5	prof_conc
spc14	0.15629	0.5	prof_conc
spc15	0	0.5	prof_conc
spc16	0.1044	0.5	prof_conc
spc17	0.36364	0.5	prof_conc
spc18	0.31446	0.5	prof_conc
spc19	0.16946	0.5	prof_conc
spc20	0	0.5	prof_conc
spc21	0.28456	0.5	prof_conc
spc22	0.34288	0.5	prof_conc
spc23	0.17381	0.5	prof_conc
* model command line
C:\PEST\nash_pest\rzwqmb.bat
* model input/output
C:\PEST\nash_pest\par2par_rzdat_deg.tpl   C:\PEST\nash_pest\par2par_rzdat_deg.in
C:\PEST\nash_pest\deg1.ins    "C:\RZWQM2\nasha_fox\nashua13\comp2exp.OUT"
* prior information
                           


































