pcf
* control data
 restart pareto
    1108     257       2    9813       2
     2     1 single  point  1   0   0
 10.0  2.0  0.3  0.03  10  999  lamforgive
 10.0  10.0  0.001
 0.1  noaui
 50  0.005  4  4  0.005  4
 1 1 1 1  jcosaveitn reisaveitn
* parameter groups
 rhopp relative    0.01  0.0  always_2  2.0 parabolic
 botpp relative    0.01  0.0  always_2  2.0 parabolic
* parameter data
bpp_0001     log  factor    942.8000      1.0e-10   1.0e+10      botpp  1.0     0.0   1
bpp_0002     log  factor    1242.849      1.0e-10   1.0e+10      botpp  1.0     0.0   1
bpp_0003     log  factor    1394.404      1.0e-10   1.0e+10      botpp  1.0     0.0   1
bpp_0004     log  factor    1459.563      1.0e-10   1.0e+10      botpp  1.0     0.0   1
bpp_0005     log  factor    1358.939      1.0e-10   1.0e+10      botpp  1.0     0.0   1
bpp_0006     log  factor    1106.194      1.0e-10   1.0e+10      botpp  1.0     0.0   1
bpp_0007     log  factor    970.4148      1.0e-10   1.0e+10      botpp  1.0     0.0   1
bpp_0008     log  factor    295.1306      1.0e-10   1.0e+10      botpp  1.0     0.0   1
bpp_0009     log  factor    364.6154      1.0e-10   1.0e+10      botpp  1.0     0.0   1
bpp_0010     log  factor    567.2673      1.0e-10   1.0e+10      botpp  1.0     0.0   1
bpp_0011     log  factor    910.3762      1.0e-10   1.0e+10      botpp  1.0     0.0   1
bpp_0012     log  factor    1302.879      1.0e-10   1.0e+10      botpp  1.0     0.0   1
bpp_0013     log  factor    1604.540      1.0e-10   1.0e+10      botpp  1.0     0.0   1
bpp_0014     log  factor    1617.924      1.0e-10   1.0e+10      botpp  1.0     0.0   1
bpp_0015     log  factor    1310.409      1.0e-10   1.0e+10      botpp  1.0     0.0   1
bpp_0016     log  factor    831.1645      1.0e-10   1.0e+10      botpp  1.0     0.0   1
bpp_0017     log  factor    667.2492      1.0e-10   1.0e+10      botpp  1.0     0.0   1
bpp_0018     log  factor    811.0096      1.0e-10   1.0e+10      botpp  1.0     0.0   1
bpp_0019     log  factor    971.9221      1.0e-10   1.0e+10      botpp  1.0     0.0   1
bpp_0020     log  factor    1007.704      1.0e-10   1.0e+10      botpp  1.0     0.0   1
bpp_0021     log  factor    984.0906      1.0e-10   1.0e+10      botpp  1.0     0.0   1
bpp_0022     log  factor    844.6295      1.0e-10   1.0e+10      botpp  1.0     0.0   1
bpp_0023     log  factor    209.5218      1.0e-10   1.0e+10      botpp  1.0     0.0   1
bpp_0024     log  factor    197.6115      1.0e-10   1.0e+10      botpp  1.0     0.0   1
bpp_0025     log  factor    224.9960      1.0e-10   1.0e+10      botpp  1.0     0.0   1
bpp_0026     log  factor    276.1757      1.0e-10   1.0e+10      botpp  1.0     0.0   1
bpp_0027     log  factor    517.1122      1.0e-10   1.0e+10      botpp  1.0     0.0   1
bpp_0028     log  factor    908.9804      1.0e-10   1.0e+10      botpp  1.0     0.0   1
bpp_0029     log  factor    1210.103      1.0e-10   1.0e+10      botpp  1.0     0.0   1
bpp_0030     log  factor    1424.196      1.0e-10   1.0e+10      botpp  1.0     0.0   1
bpp_0031     log  factor    1477.340      1.0e-10   1.0e+10      botpp  1.0     0.0   1
bpp_0032     log  factor    1037.876      1.0e-10   1.0e+10      botpp  1.0     0.0   1
bpp_0033     log  factor    359.5195      1.0e-10   1.0e+10      botpp  1.0     0.0   1
bpp_0034     log  factor    264.8828      1.0e-10   1.0e+10      botpp  1.0     0.0   1
bpp_0035     log  factor    622.9935      1.0e-10   1.0e+10      botpp  1.0     0.0   1
bpp_0036     log  factor    927.6035      1.0e-10   1.0e+10      botpp  1.0     0.0   1
bpp_0037     log  factor    1030.462      1.0e-10   1.0e+10      botpp  1.0     0.0   1
bpp_0038     log  factor    1057.119      1.0e-10   1.0e+10      botpp  1.0     0.0   1
bpp_0039     log  factor    864.0125      1.0e-10   1.0e+10      botpp  1.0     0.0   1
bpp_0040     log  factor    594.9904      1.0e-10   1.0e+10      botpp  1.0     0.0   1
bpp_0041     log  factor    429.4025      1.0e-10   1.0e+10      botpp  1.0     0.0   1
bpp_0042     log  factor    388.7534      1.0e-10   1.0e+10      botpp  1.0     0.0   1
bpp_0043     log  factor    378.0965      1.0e-10   1.0e+10      botpp  1.0     0.0   1
bpp_0044     log  factor    381.7241      1.0e-10   1.0e+10      botpp  1.0     0.0   1
bpp_0045     log  factor    360.7407      1.0e-10   1.0e+10      botpp  1.0     0.0   1
bpp_0046     log  factor    328.1886      1.0e-10   1.0e+10      botpp  1.0     0.0   1
bpp_0047     log  factor    358.8128      1.0e-10   1.0e+10      botpp  1.0     0.0   1
bpp_0048     log  factor    328.9395      1.0e-10   1.0e+10      botpp  1.0     0.0   1
bpp_0049     log  factor    179.8477      1.0e-10   1.0e+10      botpp  1.0     0.0   1
bpp_0050     log  factor    161.5212      1.0e-10   1.0e+10      botpp  1.0     0.0   1
bpp_0051     log  factor    138.4880      1.0e-10   1.0e+10      botpp  1.0     0.0   1
bpp_0052     log  factor    106.2669      1.0e-10   1.0e+10      botpp  1.0     0.0   1
bpp_0053     log  factor    174.6965      1.0e-10   1.0e+10      botpp  1.0     0.0   1
bpp_0054     log  factor    328.8724      1.0e-10   1.0e+10      botpp  1.0     0.0   1
bpp_0055     log  factor    701.2823      1.0e-10   1.0e+10      botpp  1.0     0.0   1
bpp_0056     log  factor    1055.253      1.0e-10   1.0e+10      botpp  1.0     0.0   1
bpp_0057     log  factor    1416.384      1.0e-10   1.0e+10      botpp  1.0     0.0   1
bpp_0058     log  factor    1623.020      1.0e-10   1.0e+10      botpp  1.0     0.0   1
bpp_0059     log  factor    1459.338      1.0e-10   1.0e+10      botpp  1.0     0.0   1
bpp_0060     log  factor    613.9735      1.0e-10   1.0e+10      botpp  1.0     0.0   1
bpp_0061     log  factor    285.7631      1.0e-10   1.0e+10      botpp  1.0     0.0   1
bpp_0062     log  factor    510.4021      1.0e-10   1.0e+10      botpp  1.0     0.0   1
bpp_0063     log  factor    759.0908      1.0e-10   1.0e+10      botpp  1.0     0.0   1
bpp_0064     log  factor    987.7222      1.0e-10   1.0e+10      botpp  1.0     0.0   1
bpp_0065     log  factor    1082.101      1.0e-10   1.0e+10      botpp  1.0     0.0   1
bpp_0066     log  factor    931.9234      1.0e-10   1.0e+10      botpp  1.0     0.0   1
bpp_0067     log  factor    370.3558      1.0e-10   1.0e+10      botpp  1.0     0.0   1
bpp_0068     log  factor    235.0177      1.0e-10   1.0e+10      botpp  1.0     0.0   1
bpp_0069     log  factor    328.1393      1.0e-10   1.0e+10      botpp  1.0     0.0   1
bpp_0070     log  factor    332.8361      1.0e-10   1.0e+10      botpp  1.0     0.0   1
bpp_0071     log  factor    342.2586      1.0e-10   1.0e+10      botpp  1.0     0.0   1
bpp_0072     log  factor    342.4722      1.0e-10   1.0e+10      botpp  1.0     0.0   1
bpp_0073     log  factor    395.4031      1.0e-10   1.0e+10      botpp  1.0     0.0   1
bpp_0074     log  factor    459.1162      1.0e-10   1.0e+10      botpp  1.0     0.0   1
bpp_0075     log  factor    372.0903      1.0e-10   1.0e+10      botpp  1.0     0.0   1
bpp_0076     log  factor    313.5247      1.0e-10   1.0e+10      botpp  1.0     0.0   1
bpp_0077     log  factor    403.2239      1.0e-10   1.0e+10      botpp  1.0     0.0   1
bpp_0078     log  factor    398.8450      1.0e-10   1.0e+10      botpp  1.0     0.0   1
bpp_0079     log  factor    159.6588      1.0e-10   1.0e+10      botpp  1.0     0.0   1
bpp_0080     log  factor    139.4104      1.0e-10   1.0e+10      botpp  1.0     0.0   1
bpp_0081     log  factor    106.3721      1.0e-10   1.0e+10      botpp  1.0     0.0   1
bpp_0082     log  factor    73.88734      1.0e-10   1.0e+10      botpp  1.0     0.0   1
bpp_0083     log  factor    122.8496      1.0e-10   1.0e+10      botpp  1.0     0.0   1
bpp_0084     log  factor    118.9863      1.0e-10   1.0e+10      botpp  1.0     0.0   1
bpp_0085     log  factor    292.4030      1.0e-10   1.0e+10      botpp  1.0     0.0   1
bpp_0086     log  factor    994.7230      1.0e-10   1.0e+10      botpp  1.0     0.0   1
bpp_0087     log  factor    1560.583      1.0e-10   1.0e+10      botpp  1.0     0.0   1
bpp_0088     log  factor    1847.320      1.0e-10   1.0e+10      botpp  1.0     0.0   1
bpp_0089     log  factor    2004.462      1.0e-10   1.0e+10      botpp  1.0     0.0   1
bpp_0090     log  factor    1835.691      1.0e-10   1.0e+10      botpp  1.0     0.0   1
bpp_0091     log  factor    1380.746      1.0e-10   1.0e+10      botpp  1.0     0.0   1
bpp_0092     log  factor    735.9607      1.0e-10   1.0e+10      botpp  1.0     0.0   1
bpp_0093     log  factor    285.0179      1.0e-10   1.0e+10      botpp  1.0     0.0   1
bpp_0094     log  factor    453.8567      1.0e-10   1.0e+10      botpp  1.0     0.0   1
bpp_0095     log  factor    1045.251      1.0e-10   1.0e+10      botpp  1.0     0.0   1
bpp_0096     log  factor    988.7252      1.0e-10   1.0e+10      botpp  1.0     0.0   1
bpp_0097     log  factor    433.2768      1.0e-10   1.0e+10      botpp  1.0     0.0   1
bpp_0098     log  factor    192.8692      1.0e-10   1.0e+10      botpp  1.0     0.0   1
bpp_0099     log  factor    265.2267      1.0e-10   1.0e+10      botpp  1.0     0.0   1
bpp_0100     log  factor    323.5611      1.0e-10   1.0e+10      botpp  1.0     0.0   1
bpp_0101     log  factor    328.9655      1.0e-10   1.0e+10      botpp  1.0     0.0   1
bpp_0102     log  factor    276.4517      1.0e-10   1.0e+10      botpp  1.0     0.0   1
bpp_0103     log  factor    305.6925      1.0e-10   1.0e+10      botpp  1.0     0.0   1
bpp_0104     log  factor    425.1084      1.0e-10   1.0e+10      botpp  1.0     0.0   1
bpp_0105     log  factor    181.1265      1.0e-10   1.0e+10      botpp  1.0     0.0   1
bpp_0106     log  factor    132.4445      1.0e-10   1.0e+10      botpp  1.0     0.0   1
bpp_0107     log  factor    577.4774      1.0e-10   1.0e+10      botpp  1.0     0.0   1
bpp_0108     log  factor    552.9520      1.0e-10   1.0e+10      botpp  1.0     0.0   1
bpp_0109     log  factor    186.7956      1.0e-10   1.0e+10      botpp  1.0     0.0   1
bpp_0110     log  factor    148.2189      1.0e-10   1.0e+10      botpp  1.0     0.0   1
bpp_0111     log  factor    145.1062      1.0e-10   1.0e+10      botpp  1.0     0.0   1
bpp_0112     log  factor    93.43704      1.0e-10   1.0e+10      botpp  1.0     0.0   1
bpp_0113     log  factor    33.14959      1.0e-10   1.0e+10      botpp  1.0     0.0   1
bpp_0114     log  factor    110.5557      1.0e-10   1.0e+10      botpp  1.0     0.0   1
bpp_0115     log  factor    322.8876      1.0e-10   1.0e+10      botpp  1.0     0.0   1
bpp_0116     log  factor    990.0004      1.0e-10   1.0e+10      botpp  1.0     0.0   1
bpp_0117     log  factor    1376.282      1.0e-10   1.0e+10      botpp  1.0     0.0   1
bpp_0118     log  factor    1813.494      1.0e-10   1.0e+10      botpp  1.0     0.0   1
bpp_0119     log  factor    2024.384      1.0e-10   1.0e+10      botpp  1.0     0.0   1
bpp_0120     log  factor    2122.780      1.0e-10   1.0e+10      botpp  1.0     0.0   1
bpp_0121     log  factor    2114.204      1.0e-10   1.0e+10      botpp  1.0     0.0   1
bpp_0122     log  factor    2044.480      1.0e-10   1.0e+10      botpp  1.0     0.0   1
bpp_0123     log  factor    1558.796      1.0e-10   1.0e+10      botpp  1.0     0.0   1
bpp_0124     log  factor    344.2537      1.0e-10   1.0e+10      botpp  1.0     0.0   1
bpp_0125     log  factor    304.9157      1.0e-10   1.0e+10      botpp  1.0     0.0   1
bpp_0126     log  factor    1014.888      1.0e-10   1.0e+10      botpp  1.0     0.0   1
bpp_0127     log  factor    976.2223      1.0e-10   1.0e+10      botpp  1.0     0.0   1
bpp_0128     log  factor    696.2017      1.0e-10   1.0e+10      botpp  1.0     0.0   1
bpp_0129     log  factor    389.6840      1.0e-10   1.0e+10      botpp  1.0     0.0   1
bpp_0130     log  factor    275.9422      1.0e-10   1.0e+10      botpp  1.0     0.0   1
bpp_0131     log  factor    352.8292      1.0e-10   1.0e+10      botpp  1.0     0.0   1
bpp_0132     log  factor    362.4031      1.0e-10   1.0e+10      botpp  1.0     0.0   1
bpp_0133     log  factor    187.3580      1.0e-10   1.0e+10      botpp  1.0     0.0   1
bpp_0134     log  factor    159.1085      1.0e-10   1.0e+10      botpp  1.0     0.0   1
bpp_0135     log  factor    147.6590      1.0e-10   1.0e+10      botpp  1.0     0.0   1
bpp_0136     log  factor    63.20796      1.0e-10   1.0e+10      botpp  1.0     0.0   1
bpp_0137     log  factor    35.93490      1.0e-10   1.0e+10      botpp  1.0     0.0   1
bpp_0138     log  factor    76.26410      1.0e-10   1.0e+10      botpp  1.0     0.0   1
bpp_0139     log  factor    132.7132      1.0e-10   1.0e+10      botpp  1.0     0.0   1
bpp_0140     log  factor    128.2592      1.0e-10   1.0e+10      botpp  1.0     0.0   1
bpp_0141     log  factor    148.6967      1.0e-10   1.0e+10      botpp  1.0     0.0   1
bpp_0142     log  factor    120.7532      1.0e-10   1.0e+10      botpp  1.0     0.0   1
bpp_0143     log  factor    92.37458      1.0e-10   1.0e+10      botpp  1.0     0.0   1
bpp_0144     log  factor    47.62619      1.0e-10   1.0e+10      botpp  1.0     0.0   1
bpp_0145     log  factor    163.0023      1.0e-10   1.0e+10      botpp  1.0     0.0   1
bpp_0146     log  factor    1009.834      1.0e-10   1.0e+10      botpp  1.0     0.0   1
bpp_0147     log  factor    1294.073      1.0e-10   1.0e+10      botpp  1.0     0.0   1
bpp_0148     log  factor    1377.857      1.0e-10   1.0e+10      botpp  1.0     0.0   1
bpp_0149     log  factor    1250.753      1.0e-10   1.0e+10      botpp  1.0     0.0   1
bpp_0150     log  factor    1868.618      1.0e-10   1.0e+10      botpp  1.0     0.0   1
bpp_0151     log  factor    2240.294      1.0e-10   1.0e+10      botpp  1.0     0.0   1
bpp_0152     log  factor    2201.950      1.0e-10   1.0e+10      botpp  1.0     0.0   1
bpp_0153     log  factor    2125.109      1.0e-10   1.0e+10      botpp  1.0     0.0   1
bpp_0154     log  factor    1913.116      1.0e-10   1.0e+10      botpp  1.0     0.0   1
bpp_0155     log  factor    1491.254      1.0e-10   1.0e+10      botpp  1.0     0.0   1
bpp_0156     log  factor    1009.917      1.0e-10   1.0e+10      botpp  1.0     0.0   1
bpp_0157     log  factor    907.7426      1.0e-10   1.0e+10      botpp  1.0     0.0   1
bpp_0158     log  factor    768.1052      1.0e-10   1.0e+10      botpp  1.0     0.0   1
bpp_0159     log  factor    175.5884      1.0e-10   1.0e+10      botpp  1.0     0.0   1
bpp_0160     log  factor    178.3416      1.0e-10   1.0e+10      botpp  1.0     0.0   1
bpp_0161     log  factor    215.5184      1.0e-10   1.0e+10      botpp  1.0     0.0   1
bpp_0162     log  factor    231.2610      1.0e-10   1.0e+10      botpp  1.0     0.0   1
bpp_0163     log  factor    223.6612      1.0e-10   1.0e+10      botpp  1.0     0.0   1
bpp_0164     log  factor    184.2578      1.0e-10   1.0e+10      botpp  1.0     0.0   1
bpp_0165     log  factor    142.9515      1.0e-10   1.0e+10      botpp  1.0     0.0   1
bpp_0166     log  factor    105.6333      1.0e-10   1.0e+10      botpp  1.0     0.0   1
bpp_0167     log  factor    57.20112      1.0e-10   1.0e+10      botpp  1.0     0.0   1
bpp_0168     log  factor    50.46442      1.0e-10   1.0e+10      botpp  1.0     0.0   1
bpp_0169     log  factor    9.209754      1.0e-10   1.0e+10      botpp  1.0     0.0   1
bpp_0170     log  factor    38.60478      1.0e-10   1.0e+10      botpp  1.0     0.0   1
bpp_0171     log  factor    138.5915      1.0e-10   1.0e+10      botpp  1.0     0.0   1
bpp_0172     log  factor    71.63220      1.0e-10   1.0e+10      botpp  1.0     0.0   1
bpp_0173     log  factor    137.7114      1.0e-10   1.0e+10      botpp  1.0     0.0   1
bpp_0174     log  factor    181.2911      1.0e-10   1.0e+10      botpp  1.0     0.0   1
bpp_0175     log  factor    43.25295      1.0e-10   1.0e+10      botpp  1.0     0.0   1
bpp_0176     log  factor    358.9696      1.0e-10   1.0e+10      botpp  1.0     0.0   1
bpp_0177     log  factor    1541.384      1.0e-10   1.0e+10      botpp  1.0     0.0   1
bpp_0178     log  factor    1176.120      1.0e-10   1.0e+10      botpp  1.0     0.0   1
bpp_0179     log  factor    132.7098      1.0e-10   1.0e+10      botpp  1.0     0.0   1
bpp_0180     log  factor    620.2224      1.0e-10   1.0e+10      botpp  1.0     0.0   1
bpp_0181     log  factor    2065.658      1.0e-10   1.0e+10      botpp  1.0     0.0   1
bpp_0182     log  factor    2125.109      1.0e-10   1.0e+10      botpp  1.0     0.0   1
bpp_0183     log  factor    2050.835      1.0e-10   1.0e+10      botpp  1.0     0.0   1
bpp_0184     log  factor    1874.197      1.0e-10   1.0e+10      botpp  1.0     0.0   1
bpp_0185     log  factor    1661.799      1.0e-10   1.0e+10      botpp  1.0     0.0   1
bpp_0186     log  factor    852.4256      1.0e-10   1.0e+10      botpp  1.0     0.0   1
bpp_0187     log  factor    658.4224      1.0e-10   1.0e+10      botpp  1.0     0.0   1
bpp_0188     log  factor    1154.267      1.0e-10   1.0e+10      botpp  1.0     0.0   1
bpp_0189     log  factor    666.3938      1.0e-10   1.0e+10      botpp  1.0     0.0   1
bpp_0190     log  factor    229.6182      1.0e-10   1.0e+10      botpp  1.0     0.0   1
bpp_0191     log  factor    190.2571      1.0e-10   1.0e+10      botpp  1.0     0.0   1
bpp_0192     log  factor    559.1710      1.0e-10   1.0e+10      botpp  1.0     0.0   1
bpp_0193     log  factor    418.0101      1.0e-10   1.0e+10      botpp  1.0     0.0   1
bpp_0194     log  factor    164.0273      1.0e-10   1.0e+10      botpp  1.0     0.0   1
bpp_0195     log  factor    141.7353      1.0e-10   1.0e+10      botpp  1.0     0.0   1
bpp_0196     log  factor    111.4561      1.0e-10   1.0e+10      botpp  1.0     0.0   1
bpp_0197     log  factor    79.62501      1.0e-10   1.0e+10      botpp  1.0     0.0   1
bpp_0198     log  factor    56.86597      1.0e-10   1.0e+10      botpp  1.0     0.0   1
bpp_0199     log  factor    16.08121      1.0e-10   1.0e+10      botpp  1.0     0.0   1
bpp_0200     log  factor    61.73416      1.0e-10   1.0e+10      botpp  1.0     0.0   1
bpp_0201     log  factor    184.3849      1.0e-10   1.0e+10      botpp  1.0     0.0   1
bpp_0202     log  factor    181.6255      1.0e-10   1.0e+10      botpp  1.0     0.0   1
bpp_0203     log  factor    148.4463      1.0e-10   1.0e+10      botpp  1.0     0.0   1
bpp_0204     log  factor    271.9823      1.0e-10   1.0e+10      botpp  1.0     0.0   1
bpp_0205     log  factor    362.7689      1.0e-10   1.0e+10      botpp  1.0     0.0   1
bpp_0206     log  factor    177.0061      1.0e-10   1.0e+10      botpp  1.0     0.0   1
bpp_0207     log  factor    350.4059      1.0e-10   1.0e+10      botpp  1.0     0.0   1
bpp_0208     log  factor    1003.401      1.0e-10   1.0e+10      botpp  1.0     0.0   1
bpp_0209     log  factor    519.3406      1.0e-10   1.0e+10      botpp  1.0     0.0   1
bpp_0210     log  factor    170.8713      1.0e-10   1.0e+10      botpp  1.0     0.0   1
bpp_0211     log  factor    305.1141      1.0e-10   1.0e+10      botpp  1.0     0.0   1
bpp_0212     log  factor    1134.292      1.0e-10   1.0e+10      botpp  1.0     0.0   1
bpp_0213     log  factor    1690.026      1.0e-10   1.0e+10      botpp  1.0     0.0   1
bpp_0214     log  factor    1782.857      1.0e-10   1.0e+10      botpp  1.0     0.0   1
bpp_0215     log  factor    1655.397      1.0e-10   1.0e+10      botpp  1.0     0.0   1
bpp_0216     log  factor    694.2206      1.0e-10   1.0e+10      botpp  1.0     0.0   1
bpp_0217     log  factor    263.4093      1.0e-10   1.0e+10      botpp  1.0     0.0   1
bpp_0218     log  factor    968.6401      1.0e-10   1.0e+10      botpp  1.0     0.0   1
bpp_0219     log  factor    1761.777      1.0e-10   1.0e+10      botpp  1.0     0.0   1
bpp_0220     log  factor    1736.884      1.0e-10   1.0e+10      botpp  1.0     0.0   1
bpp_0221     log  factor    1397.210      1.0e-10   1.0e+10      botpp  1.0     0.0   1
bpp_0222     log  factor    1013.707      1.0e-10   1.0e+10      botpp  1.0     0.0   1
bpp_0223     log  factor    1023.434      1.0e-10   1.0e+10      botpp  1.0     0.0   1
bpp_0224     log  factor    946.5501      1.0e-10   1.0e+10      botpp  1.0     0.0   1
bpp_0225     log  factor    539.3989      1.0e-10   1.0e+10      botpp  1.0     0.0   1
bpp_0226     log  factor    154.2979      1.0e-10   1.0e+10      botpp  1.0     0.0   1
bpp_0227     log  factor    108.5778      1.0e-10   1.0e+10      botpp  1.0     0.0   1
bpp_0228     log  factor    143.7733      1.0e-10   1.0e+10      botpp  1.0     0.0   1
bpp_0229     log  factor    80.15869      1.0e-10   1.0e+10      botpp  1.0     0.0   1
bpp_0230     log  factor    40.45138      1.0e-10   1.0e+10      botpp  1.0     0.0   1
bpp_0231     log  factor    87.79096      1.0e-10   1.0e+10      botpp  1.0     0.0   1
bpp_0232     log  factor    192.2814      1.0e-10   1.0e+10      botpp  1.0     0.0   1
bpp_0233     log  factor    248.2428      1.0e-10   1.0e+10      botpp  1.0     0.0   1
bpp_0234     log  factor    330.2317      1.0e-10   1.0e+10      botpp  1.0     0.0   1
bpp_0235     log  factor    390.7550      1.0e-10   1.0e+10      botpp  1.0     0.0   1
bpp_0236     log  factor    390.8538      1.0e-10   1.0e+10      botpp  1.0     0.0   1
bpp_0237     log  factor    296.6200      1.0e-10   1.0e+10      botpp  1.0     0.0   1
bpp_0238     log  factor    241.5657      1.0e-10   1.0e+10      botpp  1.0     0.0   1
bpp_0239     log  factor    181.7940      1.0e-10   1.0e+10      botpp  1.0     0.0   1
bpp_0240     log  factor    109.1097      1.0e-10   1.0e+10      botpp  1.0     0.0   1
bpp_0241     log  factor    153.7014      1.0e-10   1.0e+10      botpp  1.0     0.0   1
bpp_0242     log  factor    486.5785      1.0e-10   1.0e+10      botpp  1.0     0.0   1
bpp_0243     log  factor    690.4664      1.0e-10   1.0e+10      botpp  1.0     0.0   1
bpp_0244     log  factor    1076.453      1.0e-10   1.0e+10      botpp  1.0     0.0   1
bpp_0245     log  factor    1157.740      1.0e-10   1.0e+10      botpp  1.0     0.0   1
bpp_0246     log  factor    870.7124      1.0e-10   1.0e+10      botpp  1.0     0.0   1
bpp_0247     log  factor    375.8246      1.0e-10   1.0e+10      botpp  1.0     0.0   1
bpp_0248     log  factor    631.5332      1.0e-10   1.0e+10      botpp  1.0     0.0   1
bpp_0249     log  factor    1885.222      1.0e-10   1.0e+10      botpp  1.0     0.0   1
bpp_0250     log  factor    1860.227      1.0e-10   1.0e+10      botpp  1.0     0.0   1
bpp_0251     log  factor    1660.810      1.0e-10   1.0e+10      botpp  1.0     0.0   1
bpp_0252     log  factor    1563.176      1.0e-10   1.0e+10      botpp  1.0     0.0   1
bpp_0253     log  factor    1408.260      1.0e-10   1.0e+10      botpp  1.0     0.0   1
bpp_0254     log  factor    1189.517      1.0e-10   1.0e+10      botpp  1.0     0.0   1
bpp_0255     log  factor    1099.577      1.0e-10   1.0e+10      botpp  1.0     0.0   1
bpp_0256     log  factor    1055.967      1.0e-10   1.0e+10      botpp  1.0     0.0   1
bpp_0257     log  factor    596.3064      1.0e-10   1.0e+10      botpp  1.0     0.0   1
bpp_0258     log  factor    392.8223      1.0e-10   1.0e+10      botpp  1.0     0.0   1
bpp_0259     log  factor    527.7898      1.0e-10   1.0e+10      botpp  1.0     0.0   1
bpp_0260     log  factor    130.0119      1.0e-10   1.0e+10      botpp  1.0     0.0   1
bpp_0261     log  factor    54.28286      1.0e-10   1.0e+10      botpp  1.0     0.0   1
bpp_0262     log  factor    107.4626      1.0e-10   1.0e+10      botpp  1.0     0.0   1
bpp_0263     log  factor    191.4749      1.0e-10   1.0e+10      botpp  1.0     0.0   1
bpp_0264     log  factor    267.5606      1.0e-10   1.0e+10      botpp  1.0     0.0   1
bpp_0265     log  factor    362.5132      1.0e-10   1.0e+10      botpp  1.0     0.0   1
bpp_0266     log  factor    406.4403      1.0e-10   1.0e+10      botpp  1.0     0.0   1
bpp_0267     log  factor    304.2760      1.0e-10   1.0e+10      botpp  1.0     0.0   1
bpp_0268     log  factor    160.0487      1.0e-10   1.0e+10      botpp  1.0     0.0   1
bpp_0269     log  factor    194.0573      1.0e-10   1.0e+10      botpp  1.0     0.0   1
bpp_0270     log  factor    257.9807      1.0e-10   1.0e+10      botpp  1.0     0.0   1
bpp_0271     log  factor    344.6513      1.0e-10   1.0e+10      botpp  1.0     0.0   1
bpp_0272     log  factor    371.8238      1.0e-10   1.0e+10      botpp  1.0     0.0   1
bpp_0273     log  factor    557.2019      1.0e-10   1.0e+10      botpp  1.0     0.0   1
bpp_0274     log  factor    769.2713      1.0e-10   1.0e+10      botpp  1.0     0.0   1
bpp_0275     log  factor    873.3127      1.0e-10   1.0e+10      botpp  1.0     0.0   1
bpp_0276     log  factor    612.0047      1.0e-10   1.0e+10      botpp  1.0     0.0   1
bpp_0277     log  factor    345.5894      1.0e-10   1.0e+10      botpp  1.0     0.0   1
bpp_0278     log  factor    621.0703      1.0e-10   1.0e+10      botpp  1.0     0.0   1
bpp_0279     log  factor    1638.030      1.0e-10   1.0e+10      botpp  1.0     0.0   1
bpp_0280     log  factor    1881.103      1.0e-10   1.0e+10      botpp  1.0     0.0   1
bpp_0281     log  factor    1901.615      1.0e-10   1.0e+10      botpp  1.0     0.0   1
bpp_0282     log  factor    1917.638      1.0e-10   1.0e+10      botpp  1.0     0.0   1
bpp_0283     log  factor    1349.437      1.0e-10   1.0e+10      botpp  1.0     0.0   1
bpp_0284     log  factor    918.4972      1.0e-10   1.0e+10      botpp  1.0     0.0   1
bpp_0285     log  factor    1254.221      1.0e-10   1.0e+10      botpp  1.0     0.0   1
bpp_0286     log  factor    1250.586      1.0e-10   1.0e+10      botpp  1.0     0.0   1
bpp_0287     log  factor    1220.904      1.0e-10   1.0e+10      botpp  1.0     0.0   1
bpp_0288     log  factor    479.6918      1.0e-10   1.0e+10      botpp  1.0     0.0   1
bpp_0289     log  factor    508.3703      1.0e-10   1.0e+10      botpp  1.0     0.0   1
bpp_0290     log  factor    731.0386      1.0e-10   1.0e+10      botpp  1.0     0.0   1
bpp_0291     log  factor    283.8411      1.0e-10   1.0e+10      botpp  1.0     0.0   1
bpp_0292     log  factor    80.07199      1.0e-10   1.0e+10      botpp  1.0     0.0   1
bpp_0293     log  factor    132.3027      1.0e-10   1.0e+10      botpp  1.0     0.0   1
bpp_0294     log  factor    180.7513      1.0e-10   1.0e+10      botpp  1.0     0.0   1
bpp_0295     log  factor    78.20142      1.0e-10   1.0e+10      botpp  1.0     0.0   1
bpp_0296     log  factor    92.55368      1.0e-10   1.0e+10      botpp  1.0     0.0   1
bpp_0297     log  factor    206.7062      1.0e-10   1.0e+10      botpp  1.0     0.0   1
bpp_0298     log  factor    255.0898      1.0e-10   1.0e+10      botpp  1.0     0.0   1
bpp_0299     log  factor    253.3844      1.0e-10   1.0e+10      botpp  1.0     0.0   1
bpp_0300     log  factor    279.9664      1.0e-10   1.0e+10      botpp  1.0     0.0   1
bpp_0301     log  factor    358.5937      1.0e-10   1.0e+10      botpp  1.0     0.0   1
bpp_0302     log  factor    505.6430      1.0e-10   1.0e+10      botpp  1.0     0.0   1
bpp_0303     log  factor    528.2518      1.0e-10   1.0e+10      botpp  1.0     0.0   1
bpp_0304     log  factor    595.2157      1.0e-10   1.0e+10      botpp  1.0     0.0   1
bpp_0305     log  factor    826.9827      1.0e-10   1.0e+10      botpp  1.0     0.0   1
bpp_0306     log  factor    939.1988      1.0e-10   1.0e+10      botpp  1.0     0.0   1
bpp_0307     log  factor    612.0807      1.0e-10   1.0e+10      botpp  1.0     0.0   1
bpp_0308     log  factor    203.5277      1.0e-10   1.0e+10      botpp  1.0     0.0   1
bpp_0309     log  factor    463.9148      1.0e-10   1.0e+10      botpp  1.0     0.0   1
bpp_0310     log  factor    1628.377      1.0e-10   1.0e+10      botpp  1.0     0.0   1
bpp_0311     log  factor    1754.606      1.0e-10   1.0e+10      botpp  1.0     0.0   1
bpp_0312     log  factor    1879.196      1.0e-10   1.0e+10      botpp  1.0     0.0   1
bpp_0313     log  factor    1810.169      1.0e-10   1.0e+10      botpp  1.0     0.0   1
bpp_0314     log  factor    391.1709      1.0e-10   1.0e+10      botpp  1.0     0.0   1
bpp_0315     log  factor    169.5746      1.0e-10   1.0e+10      botpp  1.0     0.0   1
bpp_0316     log  factor    706.6994      1.0e-10   1.0e+10      botpp  1.0     0.0   1
bpp_0317     log  factor    1391.522      1.0e-10   1.0e+10      botpp  1.0     0.0   1
bpp_0318     log  factor    1290.445      1.0e-10   1.0e+10      botpp  1.0     0.0   1
bpp_0319     log  factor    95.61217      1.0e-10   1.0e+10      botpp  1.0     0.0   1
bpp_0320     log  factor    156.1056      1.0e-10   1.0e+10      botpp  1.0     0.0   1
bpp_0321     log  factor    624.0557      1.0e-10   1.0e+10      botpp  1.0     0.0   1
bpp_0322     log  factor    655.6610      1.0e-10   1.0e+10      botpp  1.0     0.0   1
bpp_0323     log  factor    352.4734      1.0e-10   1.0e+10      botpp  1.0     0.0   1
bpp_0324     log  factor    169.3250      1.0e-10   1.0e+10      botpp  1.0     0.0   1
bpp_0325     log  factor    184.3309      1.0e-10   1.0e+10      botpp  1.0     0.0   1
bpp_0326     log  factor    132.1398      1.0e-10   1.0e+10      botpp  1.0     0.0   1
bpp_0327     log  factor    130.8209      1.0e-10   1.0e+10      botpp  1.0     0.0   1
bpp_0328     log  factor    133.4920      1.0e-10   1.0e+10      botpp  1.0     0.0   1
bpp_0329     log  factor    232.0338      1.0e-10   1.0e+10      botpp  1.0     0.0   1
bpp_0330     log  factor    340.7713      1.0e-10   1.0e+10      botpp  1.0     0.0   1
bpp_0331     log  factor    295.4983      1.0e-10   1.0e+10      botpp  1.0     0.0   1
bpp_0332     log  factor    344.4259      1.0e-10   1.0e+10      botpp  1.0     0.0   1