pcf
* control data
restart estimation
    150  18150      1      0     26  
    1    3 double point  1    0  0
   20.000       -3.0000      0.3  0.03  -10     999  lamforgive  derforgive
      0.100  10.0  0.001
 0.1      1
    50  0.005  4  4  0.005  4
1  1  1  1 nojcosaveitn reisaveitn
* singular value decomposition
     1
   150  5.0000000E-07
     0
* svd assist
pest2.pst
pest2.jco
    1    2    0    1    0
* parameter groups
 pargp absolute    0.015  0.0  switch    2.0 parabolic
* parameter data
par1         none  relative   10.000     1.0e-20  1.0e20  pargp  1.0  -10.000      1
par2         none  relative   10.000     1.0e-20  1.0e20  pargp  1.0  -10.000      1
par3         none  relative   10.000     1.0e-20  1.0e20  pargp  1.0  -10.000      1
par4         none  relative   10.000     1.0e-20  1.0e20  pargp  1.0  -10.000      1
par5         none  relative   10.000     1.0e-20  1.0e20  pargp  1.0  -10.000      1
par6         none  relative   10.000     1.0e-20  1.0e20  pargp  1.0  -10.000      1
par7         none  relative   10.000     1.0e-20  1.0e20  pargp  1.0  -10.000      1
par8         none  relative   10.000     1.0e-20  1.0e20  pargp  1.0  -10.000      1
par9         none  relative   10.000     1.0e-20  1.0e20  pargp  1.0  -10.000      1
par10        none  relative   10.000     1.0e-20  1.0e20  pargp  1.0  -10.000      1
par11        none  relative   10.000     1.0e-20  1.0e20  pargp  1.0  -10.000      1
par12        none  relative   10.000     1.0e-20  1.0e20  pargp  1.0  -10.000      1
par13        none  relative   10.000     1.0e-20  1.0e20  pargp  1.0  -10.000      1
par14        none  relative   10.000     1.0e-20  1.0e20  pargp  1.0  -10.000      1
par15        none  relative   10.000     1.0e-20  1.0e20  pargp  1.0  -10.000      1
par16        none  relative   10.000     1.0e-20  1.0e20  pargp  1.0  -10.000      1
par17        none  relative   10.000     1.0e-20  1.0e20  pargp  1.0  -10.000      1
par18        none  relative   10.000     1.0e-20  1.0e20  pargp  1.0  -10.000      1
par19        none  relative   10.000     1.0e-20  1.0e20  pargp  1.0  -10.000      1
par20        none  relative   10.000     1.0e-20  1.0e20  pargp  1.0  -10.000      1
par21        none  relative   10.000     1.0e-20  1.0e20  pargp  1.0  -10.000      1
par22        none  relative   10.000     1.0e-20  1.0e20  pargp  1.0  -10.000      1
par23        none  relative   10.000     1.0e-20  1.0e20  pargp  1.0  -10.000      1
par24        none  relative   10.000     1.0e-20  1.0e20  pargp  1.0  -10.000      1
par25        none  relative   10.000     1.0e-20  1.0e20  pargp  1.0  -10.000      1
par26        none  relative   10.000     1.0e-20  1.0e20  pargp  1.0  -10.000      1
par27        none  relative   10.000     1.0e-20  1.0e20  pargp  1.0  -10.000      1
par28        none  relative   10.000     1.0e-20  1.0e20  pargp  1.0  -10.000      1
par29        none  relative   10.000     1.0e-20  1.0e20  pargp  1.0  -10.000      1
par30        none  relative   10.000     1.0e-20  1.0e20  pargp  1.0  -10.000      1
par31        none  relative   10.000     1.0e-20  1.0e20  pargp  1.0  -10.000      1
par32        none  relative   10.000     1.0e-20  1.0e20  pargp  1.0  -10.000      1
par33        none  relative   10.000     1.0e-20  1.0e20  pargp  1.0  -10.000      1
par34        none  relative   10.000     1.0e-20  1.0e20  pargp  1.0  -10.000      1
par35        none  relative   10.000     1.0e-20  1.0e20  pargp  1.0  -10.000      1
par36        none  relative   10.000     1.0e-20  1.0e20  pargp  1.0  -10.000      1
par37        none  relative   10.000     1.0e-20  1.0e20  pargp  1.0  -10.000      1
par38        none  relative   10.000     1.0e-20  1.0e20  pargp  1.0  -10.000      1
par39        none  relative   10.000     1.0e-20  1.0e20  pargp  1.0  -10.000      1
par40        none  relative   10.000     1.0e-20  1.0e20  pargp  1.0  -10.000      1
par41        none  relative   10.000     1.0e-20  1.0e20  pargp  1.0  -10.000      1
par42        none  relative   10.000     1.0e-20  1.0e20  pargp  1.0  -10.000      1
par43        none  relative   10.000     1.0e-20  1.0e20  pargp  1.0  -10.000      1
par44        none  relative   10.000     1.0e-20  1.0e20  pargp  1.0  -10.000      1
par45        none  relative   10.000     1.0e-20  1.0e20  pargp  1.0  -10.000      1
par46        none  relative   10.000     1.0e-20  1.0e20  pargp  1.0  -10.000      1
par47        none  relative   10.000     1.0e-20  1.0e20  pargp  1.0  -10.000      1
par48        none  relative   10.000     1.0e-20  1.0e20  pargp  1.0  -10.000      1
par49        none  relative   10.000     1.0e-20  1.0e20  pargp  1.0  -10.000      1
par50        none  relative   10.000     1.0e-20  1.0e20  pargp  1.0  -10.000      1
par51        none  relative   10.000     1.0e-20  1.0e20  pargp  1.0  -10.000      1
par52        none  relative   10.000     1.0e-20  1.0e20  pargp  1.0  -10.000      1
par53        none  relative   10.000     1.0e-20  1.0e20  pargp  1.0  -10.000      1
par54        none  relative   10.000     1.0e-20  1.0e20  pargp  1.0  -10.000      1
par55        none  relative   10.000     1.0e-20  1.0e20  pargp  1.0  -10.000      1
par56        none  relative   10.000     1.0e-20  1.0e20  pargp  1.0  -10.000      1
par57        none  relative   10.000     1.0e-20  1.0e20  pargp  1.0  -10.000      1
par58        none  relative   10.000     1.0e-20  1.0e20  pargp  1.0  -10.000      1
par59        none  relative   10.000     1.0e-20  1.0e20  pargp  1.0  -10.000      1
par60        none  relative   10.000     1.0e-20  1.0e20  pargp  1.0  -10.000      1
par61        none  relative   10.000     1.0e-20  1.0e20  pargp  1.0  -10.000      1
par62        none  relative   10.000     1.0e-20  1.0e20  pargp  1.0  -10.000      1
par63        none  relative   10.000     1.0e-20  1.0e20  pargp  1.0  -10.000      1
par64        none  relative   10.000     1.0e-20  1.0e20  pargp  1.0  -10.000      1
par65        none  relative   10.000     1.0e-20  1.0e20  pargp  1.0  -10.000      1
par66        none  relative   10.000     1.0e-20  1.0e20  pargp  1.0  -10.000      1
par67        none  relative   10.000     1.0e-20  1.0e20  pargp  1.0  -10.000      1
par68        none  relative   10.000     1.0e-20  1.0e20  pargp  1.0  -10.000      1
par69        none  relative   10.000     1.0e-20  1.0e20  pargp  1.0  -10.000      1
par70        none  relative   10.000     1.0e-20  1.0e20  pargp  1.0  -10.000      1
par71        none  relative   10.000     1.0e-20  1.0e20  pargp  1.0  -10.000      1
par72        none  relative   10.000     1.0e-20  1.0e20  pargp  1.0  -10.000      1
par73        none  relative   10.000     1.0e-20  1.0e20  pargp  1.0  -10.000      1
par74        none  relative   10.000     1.0e-20  1.0e20  pargp  1.0  -10.000      1
par75        none  relative   10.000     1.0e-20  1.0e20  pargp  1.0  -10.000      1
par76        none  relative   10.000     1.0e-20  1.0e20  pargp  1.0  -10.000      1
par77        none  relative   10.000     1.0e-20  1.0e20  pargp  1.0  -10.000      1
par78        none  relative   10.000     1.0e-20  1.0e20  pargp  1.0  -10.000      1
par79        none  relative   10.000     1.0e-20  1.0e20  pargp  1.0  -10.000      1
par80        none  relative   10.000     1.0e-20  1.0e20  pargp  1.0  -10.000      1
par81        none  relative   10.000     1.0e-20  1.0e20  pargp  1.0  -10.000      1
par82        none  relative   10.000     1.0e-20  1.0e20  pargp  1.0  -10.000      1
par83        none  relative   10.000     1.0e-20  1.0e20  pargp  1.0  -10.000      1
par84        none  relative   10.000     1.0e-20  1.0e20  pargp  1.0  -10.000      1
par85        none  relative   10.000     1.0e-20  1.0e20  pargp  1.0  -10.000      1
par86        none  relative   10.000     1.0e-20  1.0e20  pargp  1.0  -10.000      1
par87        none  relative   10.000     1.0e-20  1.0e20  pargp  1.0  -10.000      1
par88        none  relative   10.000     1.0e-20  1.0e20  pargp  1.0  -10.000      1
par89        none  relative   10.000     1.0e-20  1.0e20  pargp  1.0  -10.000      1
par90        none  relative   10.000     1.0e-20  1.0e20  pargp  1.0  -10.000      1
par91        none  relative   10.000     1.0e-20  1.0e20  pargp  1.0  -10.000      1
par92        none  relative   10.000     1.0e-20  1.0e20  pargp  1.0  -10.000      1
par93        none  relative   10.000     1.0e-20  1.0e20  pargp  1.0  -10.000      1
par94        none  relative   10.000     1.0e-20  1.0e20  pargp  1.0  -10.000      1
par95        none  relative   10.000     1.0e-20  1.0e20  pargp  1.0  -10.000      1
par96        none  relative   10.000     1.0e-20  1.0e20  pargp  1.0  -10.000      1
par97        none  relative   10.000     1.0e-20  1.0e20  pargp  1.0  -10.000      1
par98        none  relative   10.000     1.0e-20  1.0e20  pargp  1.0  -10.000      1
par99        none  relative   10.000     1.0e-20  1.0e20  pargp  1.0  -10.000      1
par100       none  relative   10.000     1.0e-20  1.0e20  pargp  1.0  -10.000      1
par101       none  relative   10.000     1.0e-20  1.0e20  pargp  1.0  -10.000      1
par102       none  relative   10.000     1.0e-20  1.0e20  pargp  1.0  -10.000      1
par103       none  relative   10.000     1.0e-20  1.0e20  pargp  1.0  -10.000      1
par104       none  relative   10.000     1.0e-20  1.0e20  pargp  1.0  -10.000      1
par105       none  relative   10.000     1.0e-20  1.0e20  pargp  1.0  -10.000      1
par106       none  relative   10.000     1.0e-20  1.0e20  pargp  1.0  -10.000      1
par107       none  relative   10.000     1.0e-20  1.0e20  pargp  1.0  -10.000      1
par108       none  relative   10.000     1.0e-20  1.0e20  pargp  1.0  -10.000      1
par109       none  relative   10.000     1.0e-20  1.0e20  pargp  1.0  -10.000      1
par110       none  relative   10.000     1.0e-20  1.0e20  pargp  1.0  -10.000      1
par111       none  relative   10.000     1.0e-20  1.0e20  pargp  1.0  -10.000      1
par112       none  relative   10.000     1.0e-20  1.0e20  pargp  1.0  -10.000      1
par113       none  relative   10.000     1.0e-20  1.0e20  pargp  1.0  -10.000      1
par114       none  relative   10.000     1.0e-20  1.0e20  pargp  1.0  -10.000      1
par115       none  relative   10.000     1.0e-20  1.0e20  pargp  1.0  -10.000      1
par116       none  relative   10.000     1.0e-20  1.0e20  pargp  1.0  -10.000      1
par117       none  relative   10.000     1.0e-20  1.0e20  pargp  1.0  -10.000      1
par118       none  relative   10.000     1.0e-20  1.0e20  pargp  1.0  -10.000      1
par119       none  relative   10.000     1.0e-20  1.0e20  pargp  1.0  -10.000      1
par120       none  relative   10.000     1.0e-20  1.0e20  pargp  1.0  -10.000      1
par121       none  relative   10.000     1.0e-20  1.0e20  pargp  1.0  -10.000      1
par122       none  relative   10.000     1.0e-20  1.0e20  pargp  1.0  -10.000      1
par123       none  relative   10.000     1.0e-20  1.0e20  pargp  1.0  -10.000      1
par124       none  relative   10.000     1.0e-20  1.0e20  pargp  1.0  -10.000      1
par125       none  relative   10.000     1.0e-20  1.0e20  pargp  1.0  -10.000      1
par126       none  relative   10.000     1.0e-20  1.0e20  pargp  1.0  -10.000      1
par127       none  relative   10.000     1.0e-20  1.0e20  pargp  1.0  -10.000      1
par128       none  relative   10.000     1.0e-20  1.0e20  pargp  1.0  -10.000      1
par129       none  relative   10.000     1.0e-20  1.0e20  pargp  1.0  -10.000      1
par130       none  relative   10.000     1.0e-20  1.0e20  pargp  1.0  -10.000      1
par131       none  relative   10.000     1.0e-20  1.0e20  pargp  1.0  -10.000      1
par132       none  relative   10.000     1.0e-20  1.0e20  pargp  1.0  -10.000      1
par133       none  relative   10.000     1.0e-20  1.0e20  pargp  1.0  -10.000      1
par134       none  relative   10.000     1.0e-20  1.0e20  pargp  1.0  -10.000      1
par135       none  relative   10.000     1.0e-20  1.0e20  pargp  1.0  -10.000      1
par136       none  relative   10.000     1.0e-20  1.0e20  pargp  1.0  -10.000      1
par137       none  relative   10.000     1.0e-20  1.0e20  pargp  1.0  -10.000      1
par138       none  relative   10.000     1.0e-20  1.0e20  pargp  1.0  -10.000      1
par139       none  relative   10.000     1.0e-20  1.0e20  pargp  1.0  -10.000      1
par140       none  relative   10.000     1.0e-20  1.0e20  pargp  1.0  -10.000      1
par141       none  relative   10.000     1.0e-20  1.0e20  pargp  1.0  -10.000      1
par142       none  relative   10.000     1.0e-20  1.0e20  pargp  1.0  -10.000      1
par143       none  relative   10.000     1.0e-20  1.0e20  pargp  1.0  -10.000      1
par144       none  relative   10.000     1.0e-20  1.0e20  pargp  1.0  -10.000      1
par145       none  relative   10.000     1.0e-20  1.0e20  pargp  1.0  -10.000      1
par146       none  relative   10.000     1.0e-20  1.0e20  pargp  1.0  -10.000      1
par147       none  relative   10.000     1.0e-20  1.0e20  pargp  1.0  -10.000      1
par148       none  relative   10.000     1.0e-20  1.0e20  pargp  1.0  -10.000      1
par149       none  relative   10.000     1.0e-20  1.0e20  pargp  1.0  -10.000      1
par150       none  relative   10.000     1.0e-20  1.0e20  pargp  1.0  -10.000      1
* observation groups
Head1
Head2
Head3
Head4
Head5
Head6
Head7
Head9
Head10
Head11
Head12
Ddn1
Ddn2
Ddn3
Ddn4
Ddn5
Ddn6
Ddn7
Ddn9
Ddn10
Ddn11
Ddn12
gage1
gage2
flux
mnw
* observation data
o1               2177.01               0        Head1
o2                  -1.1              10        Ddn1
o3                  -2.8              10        Ddn1
o4                  -2.1              10        Ddn1
o5                  -0.8              10        Ddn1
o6                  -3.8              10        Ddn1
o7                  -3.6              10        Ddn1
o8                  -4.6              10        Ddn1
o9                  -3.3              10        Ddn1
o10                 -5.4              10        Ddn1
o11                 -4.7              10        Ddn1
o12                 -3.2              10        Ddn1
o13                 -3.4              10        Ddn1
o14                -1.86              10        Ddn1
o15                -1.72              10        Ddn1
o16                -1.23              10        Ddn1
o17                -1.87              10        Ddn1
o18                 -2.3              10        Ddn1
o19                -3.95              10        Ddn1
o20                -4.23              10        Ddn1
o21                -6.95              10        Ddn1
o22                 -4.6              10        Ddn1
o23                 -7.1              10        Ddn1
o24                 -7.1              10        Ddn1
o25                 -5.7              10        Ddn1
o26                 -4.1              10        Ddn1
o27                 -3.3              10        Ddn1
o28                 -2.5              10        Ddn1
o29                 -2.6              10        Ddn1
o30              2170.57               0        Head1
o31                 -1.6              10        Ddn1
o32                 -3.5              10        Ddn1
o33                 -0.8              10        Ddn1
o34                  1.9              10        Ddn1
o35                 -0.5              10        Ddn1
o36                 -0.8              10        Ddn1
o37                 -1.3              10        Ddn1
o38                 -1.2              10        Ddn1
o39                 -2.8              10        Ddn1
o40                 -2.6              10        Ddn1
o41                 -1.2              10        Ddn1
o42                 -0.7              10        Ddn1
o43                 0.18              10        Ddn1
o44                 0.88              10        Ddn1
o45                 1.57              10        Ddn1
o46                 2.13              10        Ddn1
o47                  2.2              10        Ddn1
o48                 0.35              10        Ddn1
o49                -1.87              10        Ddn1
o50                 -4.1              10        Ddn1
o51                 -3.6              10        Ddn1
o52                   -3              10        Ddn1
o53              3016.83               0        Head3
o54                 -0.6               2        Ddn3
o55                 -0.5               2        Ddn3
o56                 -0.5               2        Ddn3
o57                -0.38               2        Ddn3
o58                 0.02               2        Ddn3
o59                  0.1               2        Ddn3
o60                 0.03               2        Ddn3
o61                -0.35               2        Ddn3
o62                -0.53               2        Ddn3
o63                -1.03               2        Ddn3
o64                -1.05               2        Ddn3
o65                 -1.9               2        Ddn3
o66                   -2               2        Ddn3
o67                 -1.5               2        Ddn3
o68                 -1.6               2        Ddn3
o69                 -1.3               2        Ddn3
o70                   -1               2        Ddn3
o71                 -0.9               2        Ddn3
o72                 -0.7               2        Ddn3
o73              2730.43               0        Head3
o74                 -0.1               2        Ddn3
o75                  0.1               2        Ddn3
o76                    0               2        Ddn3
o77                 0.18               2        Ddn3
o78                 0.23               2        Ddn3
o79                  0.5               2        Ddn3
o80                 0.27               2        Ddn3
o81                 -0.2               2        Ddn3
o82                -0.17               2        Ddn3
o83                -0.67               2        Ddn3
o84                -1.15               2        Ddn3
o85                 -1.2               2        Ddn3
o86                 -1.5               2        Ddn3
o87                   -1               2        Ddn3
o88                   -1               2        Ddn3
o89                 -0.6               2        Ddn3
o90                 -0.3               2        Ddn3
o91                 -0.2               2        Ddn3
o92                 -0.1               2        Ddn3
o93              3324.62               0        Head3
o94                 -0.2               2        Ddn3
o95                 -0.4               2        Ddn3
o96                 -0.7               2        Ddn3
o97                -0.68               2        Ddn3
o98                -0.73               2        Ddn3
o99                 -0.5               2        Ddn3
o100                -0.5               2        Ddn3
o101                -0.6               2        Ddn3
o102               -0.53               2        Ddn3
o103                  -1               2        Ddn3
o104               -1.25               2        Ddn3
o105                -1.8               2        Ddn3
o106                -2.1               2        Ddn3
o107                -2.2               2        Ddn3
o108                -2.8               2        Ddn3
o109                -2.7               2        Ddn3
o110                -2.8               2        Ddn3
o111                -2.8               2        Ddn3
o112                -2.7               2        Ddn3
o113                3204               0        Head3
o114                 0.3               2        Ddn3
o115                 0.8               2        Ddn3
o116                 0.9               2        Ddn3
o117                1.16               2        Ddn3
o118                1.58               2        Ddn3
o119                2.13               2        Ddn3
o120                1.27               2        Ddn3
o121                 0.4               2        Ddn3
o122                0.03               2        Ddn3
o123               -1.07               2        Ddn3
o124                  -2               2        Ddn3
o125                -1.8               2        Ddn3
o126                -2.1               2        Ddn3
o127                -1.7               2        Ddn3
o128                -1.4               2        Ddn3
o129                -0.6               2        Ddn3
o130                -0.3               2        Ddn3
o131                -0.2               2        Ddn3
o132                 0.3               2        Ddn3
o133             2825.58               0        Head3
o134                -0.1               2        Ddn3
o135                 0.1               2        Ddn3
o136                 0.1               2        Ddn3
o137                0.34               2        Ddn3
o138                0.35               2        Ddn3
o139                0.67               2        Ddn3
o140                0.37               2        Ddn3
o141                -0.1               2        Ddn3
o142               -0.17               2        Ddn3
o143               -0.77               2        Ddn3
o144                -1.3               2        Ddn3
o145                -1.5               2        Ddn3
o146                -1.6               2        Ddn3
o147                -1.2               2        Ddn3
o148                -1.4               2        Ddn3
o149                -0.9               2        Ddn3
o150                -0.7               2        Ddn3
o151                -0.5               2        Ddn3
o152                -0.2               2        Ddn3
o153             2817.81               0        Head4
o154                -0.2               1        Ddn4
o155                   0               1        Ddn4
o156                -0.1               1        Ddn4
o157                 0.2               1        Ddn4
o158                0.35               1        Ddn4
o159                0.57               1        Ddn4
o160                0.67               1        Ddn4
o161                 0.1               1        Ddn4
o162               -0.07               1        Ddn4
o163               -0.77               1        Ddn4
o164               -1.15               1        Ddn4
o165                -1.9               1        Ddn4
o166                  -2               1        Ddn4
o167                -1.6               1        Ddn4
o168                -1.8               1        Ddn4
o169                -1.5               1        Ddn4
o170                -1.1               1        Ddn4
o171                -0.9               1        Ddn4
o172                -0.5               1        Ddn4
o173              2098.2               0        Head4
o174                -0.3               1        Ddn4
o175                -2.1               1        Ddn4
o176                -0.5               1        Ddn4
o177                 0.5               1        Ddn4
o178                -0.9               1        Ddn4
o179                -1.2               1        Ddn4
o180                -2.1               1        Ddn4
o181                -3.8               1        Ddn4
o182                -4.4               1        Ddn4
o183                -3.5               1        Ddn4
o184                  -3               1        Ddn4
o185               -2.34               1        Ddn4
o186               -1.63               1        Ddn4
o187                  -1               1        Ddn4
o188               -0.43               1        Ddn4
o189                -0.1               1        Ddn4
o190               -1.75               1        Ddn4
o191                -2.5               1        Ddn4
o192               -5.25               1        Ddn4
o193                -3.9               1        Ddn4
o194                -4.9               1        Ddn4
o195                -3.6               1        Ddn4
o196                -3.4               1        Ddn4
o197                -1.9               1        Ddn4
o198                -1.1               1        Ddn4
o199                -0.5               1        Ddn4
o200                 0.1               1        Ddn4
o201             2123.56               0        Head4
o202                   0               1        Ddn4
o203                -0.9               1        Ddn4
o204                -0.1               1        Ddn4
o205                 0.8               1        Ddn4
o206                -1.2               1        Ddn4
o207                -0.7               1        Ddn4
o208                -0.8               1        Ddn4
o209                -0.4               1        Ddn4
o210                -1.4               1        Ddn4
o211                  -2               1        Ddn4
o212                -1.3               1        Ddn4
o213                -1.5               1        Ddn4
o214               -0.62               1        Ddn4
o215                -0.1               1        Ddn4
o216                0.37               1        Ddn4
o217                0.67               1        Ddn4
o218                0.35               1        Ddn4
o219                -1.8               1        Ddn4
o220               -3.33               1        Ddn4
o221                -5.4               1        Ddn4
o222                -4.5               1        Ddn4
o223                -5.3               1        Ddn4
o224                -5.3               1        Ddn4
o225                  -5               1        Ddn4
o226                  -4               1        Ddn4
o227                -3.4               1        Ddn4
o228                  -3               1        Ddn4
o229                -2.9               1        Ddn4
o230             2648.18               0        Head6
o231             2637.49               0        Head6
o232             2645.44               0        Head6
o233             2005.96               0        Head5
o234             2007.74               0        Head5
o235             2060.68               0        Head5
o236             2002.94               0        Head4
o237             2001.99               0        Head12
o238             2251.83               0        Head4
o239                 2.1               1        Ddn4
o240                 2.6               1        Ddn4
o241                 2.1               1        Ddn4
o242                 2.5               1        Ddn4
o243                 2.1               1        Ddn4
o244                 2.4               1        Ddn4
o245                 2.5               1        Ddn4
o246                   2               1        Ddn4
o247                3.31               1        Ddn4
o248                3.47               1        Ddn4
o249             2151.47               0        Head5
o250               -31.8               1        Ddn5
o251             1820.27               0        Head3
o252                -0.3               2        Ddn3
o253                -0.4               2        Ddn3
o254                 0.2               2        Ddn3
o255                 1.4               2        Ddn3
o256                2.27               2        Ddn3
o257                2.04               2        Ddn3
o258                0.53               2        Ddn3
o259                0.56               2        Ddn3
o260               -0.37               2        Ddn3
o261                  -1               2        Ddn3
o262               -0.64               2        Ddn3
o263               -0.18               2        Ddn3
o264                 0.1               2        Ddn3
o265                -0.5               2        Ddn3
o266                -0.8               2        Ddn3
o267                -0.2               2        Ddn3
o268                -0.2               2        Ddn3
o269                 0.1               2        Ddn3
o270                   0               2        Ddn3
o271                 0.1               2        Ddn3
o272             1841.32               0        Head3
o273                 0.6               2        Ddn3
o274                 0.4               2        Ddn3
o275                   0               2        Ddn3
o276                   2               2        Ddn3
o277                 2.8               2        Ddn3
o278                3.55               2        Ddn3
o279                4.35               2        Ddn3
o280                3.88               2        Ddn3
o281                2.46               2        Ddn3
o282                2.68               2        Ddn3
o283                1.12               2        Ddn3
o284                0.69               2        Ddn3
o285                0.78               2        Ddn3
o286                 1.5               2        Ddn3
o287                   0               2        Ddn3
o288                  -1               2        Ddn3
o289                -1.2               2        Ddn3
o290                 0.5               2        Ddn3
o291                -0.8               2        Ddn3
o292                 1.3               2        Ddn3
o293                -0.1               2        Ddn3
o294             1845.36               0        Head3
o295                 0.5               2        Ddn3
o296                 0.3               2        Ddn3
o297                -0.3               2        Ddn3
o298                   1               2        Ddn3
o299                 2.3               2        Ddn3
o300                3.18               2        Ddn3
o301                3.63               2        Ddn3
o302                3.69               2        Ddn3