pcf
* control data
restart estimation
6 1233 4 0 2
1  1  double  point  1  0  0
1.000000e+001  2.000000e+000  3.000000e-001  1.000000e-002  10
1.000000e+001  1.000000e+001  1.000000e-003
1.000000e-001 noaui
0  1.000000e-002  3  3  1.000000e-002  3 **** CONTROLS OPTIMIZATION: SEE PEST MANUAL ****
1  1  1
* parameter groups
Kh     relative   1.000000e-002  0.000000e+000  switch  2.000000e+000  parabolic
Base   relative   1.000000e-002  0.000000e+000  switch  2.000000e+000  parabolic
Rch    relative   1.000000e-002  0.000000e+000  switch  2.000000e+000  parabolic
Res    relative   1.000000e-002  0.000000e+000  switch  2.000000e+000  parabolic
* parameter data
KParkFalls__	log   factor   7.4	 .74	 74	Kh     1.0      0.0 1
BParkFalls__	none  factor   1311.53	 131.153	 13115.3	Base   1.0      0.0 1
PFrecharge__	none  factor   .002093964695	 .0002093964695	 .02093964695	Rch    -1.0     0.0 1
Cdrainage___	none  factor   .1	 .01	 1	Res    1.0      0.0 1
Cseepage____	none  factor   21	 2.1	 210	Res    1.0      0.0 1
Cstream_____	none  factor   .05	 .005	 .5	Res    1.0      0.0 1
* observation groups
Head
Streamflow
* observation data
7551 1570	1.000000 Head
8196 1569	1.000000 Head
8197 1581	1.000000 Head
8200 1528	1.000000 Head
8199 1528	1.000000 Head
8198 1520	1.000000 Head
3653 1570	1.000000 Head
8201 1535	1.000000 Head
8194 1599	1.000000 Head
8190 1569	1.000000 Head
8195 1581	1.000000 Head
8193 1597	1.000000 Head
8187 1561	1.000000 Head
655 1635	1.000000 Head
2828 1652	1.000000 Head
39 1671	1.000000 Head
214 1691	1.000000 Head
8186 1629	1.000000 Head
560 1665	1.000000 Head
760 1665	1.000000 Head
1161 1669	1.000000 Head
1530 1650	1.000000 Head
1954 1665	1.000000 Head
3876 1581	1.000000 Head
10650 1610	1.000000 Head
3869 1588	1.000000 Head
2924 1662	1.000000 Head
1563 1660	1.000000 Head
3872 1637	1.000000 Head
3871 1657	1.000000 Head
3870 1656	1.000000 Head
2923 1638	1.000000 Head
3875 1694	1.000000 Head
1105 1675	1.000000 Head
630 1675	1.000000 Head
3861 1671	1.000000 Head
4206 1711	1.000000 Head
1888 1666	1.000000 Head
3860 1637	1.000000 Head
3874 1698	1.000000 Head
3873 1710	1.000000 Head
589 1656	1.000000 Head
3862 1678	1.000000 Head
3863 1694	1.000000 Head
2013 1654	1.000000 Head
2027 1654	1.000000 Head
785 1642	1.000000 Head
2731 1636	1.000000 Head
4205 1684	1.000000 Head
1101 1665	1.000000 Head
766 1617	1.000000 Head
3859 1610	1.000000 Head
2922 1692	1.000000 Head
3855 1653	1.000000 Head
3853 1605	1.000000 Head
423 1698	1.000000 Head
7769 1552	1.000000 Head
10618 1549	1.000000 Head
3852 1640	1.000000 Head
10640 1553	1.000000 Head
10639 1546	1.000000 Head
10649 1553	1.000000 Head
10645 1547	1.000000 Head
10642 1567	1.000000 Head
10643 1549	1.000000 Head
10641 1541	1.000000 Head
10648 1567	1.000000 Head
3849 1595	1.000000 Head
10634 1553	1.000000 Head
10617 1548	1.000000 Head
2921 1678	1.000000 Head
10622 1536	1.000000 Head
10647 1554	1.000000 Head
3850 1636	1.000000 Head
10638 1549	1.000000 Head
10646 1557	1.000000 Head
10632 1547	1.000000 Head
10633 1548	1.000000 Head
10630 1558	1.000000 Head
10635 1551	1.000000 Head
10631 1553	1.000000 Head
10636 1548	1.000000 Head
3848 1610	1.000000 Head
10619 1562	1.000000 Head
10637 1552	1.000000 Head
10616 1552	1.000000 Head
2729 1627	1.000000 Head
10620 1544	1.000000 Head
10613 1549	1.000000 Head
3846 1528	1.000000 Head
10625 1556	1.000000 Head
10629 1555	1.000000 Head
10615 1554	1.000000 Head
10623 1556	1.000000 Head
10627 1547	1.000000 Head
10626 1552	1.000000 Head
10614 1546	1.000000 Head
7522 1552	1.000000 Head
10628 1548	1.000000 Head
2916 1616	1.000000 Head
10624 1545	1.000000 Head
3851 1632	1.000000 Head
2915 1712	1.000000 Head
4386 1639	1.000000 Head
3778 1464	1.000000 Head
10611 1563	1.000000 Head
10609 1575	1.000000 Head
2914 1708	1.000000 Head
7521 1572	1.000000 Head
10610 1553	1.000000 Head
3780 1431	1.000000 Head
10604 1555	1.000000 Head
7662 1561	1.000000 Head
10596 1547	1.000000 Head
10594 1547	1.000000 Head
10595 1546	1.000000 Head
557 1710	1.000000 Head
10606 1563	1.000000 Head
3847 1552	1.000000 Head
10597 1548	1.000000 Head
10601 1549	1.000000 Head
10593 1557	1.000000 Head
10607 1573	1.000000 Head
10605 1559	1.000000 Head
3776 1503	1.000000 Head
2960 1457	1.000000 Head
2963 1475	1.000000 Head
2961 1451	1.000000 Head
820 1456	1.000000 Head
3775 1480	1.000000 Head
1605 1479	1.000000 Head
10598 1550	1.000000 Head
802 1503	1.000000 Head
10612 1545	1.000000 Head
1995 1467	1.000000 Head
1771 1494	1.000000 Head
10600 1550	1.000000 Head
3143 1466	1.000000 Head
12622 1560	1.000000 Head
863 1538	1.000000 Head
363 1513	1.000000 Head
1772 1478	1.000000 Head
1808 1496	1.000000 Head
3146 1526	1.000000 Head
674 1482	1.000000 Head
2959 1472	1.000000 Head
1119 1494	1.000000 Head
12621 1537	1.000000 Head
1118 1485	1.000000 Head
972 1483	1.000000 Head
12630 1552	1.000000 Head
12631 1567	1.000000 Head
1051 1476	1.000000 Head
2978 1494	1.000000 Head
710 1493	1.000000 Head
2977 1489	1.000000 Head
2976 1497	1.000000 Head
610 1500	1.000000 Head
3765 1489	1.000000 Head
12624 1552	1.000000 Head
1606 1485	1.000000 Head
12628 1559	1.000000 Head
1252 1489	1.000000 Head
12629 1560	1.000000 Head
1804 1487	1.000000 Head
12627 1542	1.000000 Head
12611 1553	1.000000 Head
2980 1501	1.000000 Head
1721 1493	1.000000 Head
1357 1488	1.000000 Head
1356 1494	1.000000 Head
2965 1464	1.000000 Head
936 1483	1.000000 Head
78 1494	1.000000 Head
12632 1548	1.000000 Head
846 1482	1.000000 Head
2968 1481	1.000000 Head
1879 1490	1.000000 Head
1767 1469	1.000000 Head
643 1484	1.000000 Head
574 1493	1.000000 Head
4390 1491	1.000000 Head
2967 1480	1.000000 Head
957 1487	1.000000 Head
1448 1490	1.000000 Head
1654 1471	1.000000 Head
2970 1471	1.000000 Head
2964 1485	1.000000 Head
915 1485	1.000000 Head
2979 1531	1.000000 Head
1470 1491	1.000000 Head
796 1485	1.000000 Head
301 1504	1.000000 Head
1201 1520	1.000000 Head
1219 1477	1.000000 Head
2946 1479	1.000000 Head
12625 1557	1.000000 Head
1945 1480	1.000000 Head
12618 1562	1.000000 Head
500 1480	1.000000 Head
835 1496	1.000000 Head
1104 1474	1.000000 Head
12617 1545	1.000000 Head
1077 1476	1.000000 Head
1205 1487	1.000000 Head
12619 1544	1.000000 Head
711 1477	1.000000 Head
1044 1459	1.000000 Head
12620 1550	1.000000 Head
1526 1482	1.000000 Head
761 1492	1.000000 Head
1379 1484	1.000000 Head
1199 1481	1.000000 Head
1066 1486	1.000000 Head
2966 1496	1.000000 Head
3138 1488	1.000000 Head
3773 1480	1.000000 Head
2969 1489	1.000000 Head
478 1491	1.000000 Head
129 1497	1.000000 Head
1790 1486	1.000000 Head
1934 1493	1.000000 Head
3774 1496	1.000000 Head
4250 1477	1.000000 Head
721 1477	1.000000 Head
325 1506	1.000000 Head
3845 1510	1.000000 Head
12623 1555	1.000000 Head
759 1484	1.000000 Head
12612 1545	1.000000 Head
2974 1500	1.000000 Head
3844 1510	1.000000 Head
1778 1492	1.000000 Head
3767 1490	1.000000 Head
907 1493	1.000000 Head
1159 1549	1.000000 Head
1476 1486	1.000000 Head
2973 1492	1.000000 Head
739 1470	1.000000 Head
3137 1473	1.000000 Head
2954 1489	1.000000 Head
2957 1492	1.000000 Head
2955 1494	1.000000 Head
2958 1489	1.000000 Head
2953 1490	1.000000 Head
3770 1454	1.000000 Head
887 1490	1.000000 Head
3766 1526	1.000000 Head
59 1542	1.000000 Head
12607 1548	1.000000 Head
12610 1547	1.000000 Head
1890 1463	1.000000 Head
2943 1474	1.000000 Head
572 1480	1.000000 Head
2956 1518	1.000000 Head
2941 1484	1.000000 Head
248 1500	1.000000 Head
12613 1551	1.000000 Head
1913 1480	1.000000 Head
2944 1504	1.000000 Head
1885 1483	1.000000 Head
3769 1496	1.000000 Head
3768 1480	1.000000 Head
1720 1480	1.000000 Head
1220 1506	1.000000 Head
12609 1551	1.000000 Head
1950 1489	1.000000 Head
585 1497	1.000000 Head
1202 1483	1.000000 Head
3771 1461	1.000000 Head
12605 1550	1.000000 Head
3772 1518	1.000000 Head
1358 1514	1.000000 Head
246 1532	1.000000 Head
3969 1497	1.000000 Head
635 1518	1.000000 Head
220 1522	1.000000 Head
12606 1552	1.000000 Head
1589 1482	1.000000 Head
3997 1506	1.000000 Head
1135 1483	1.000000 Head
144 1539	1.000000 Head
2945 1485	1.000000 Head
891 1517	1.000000 Head
12604 1552	1.000000 Head
3990 1492	1.000000 Head
4216 1488	1.000000 Head
1031 1482	1.000000 Head
2942 1496	1.000000 Head
295 1634	1.000000 Head
2971 1553	1.000000 Head
1904 1482	1.000000 Head
658 1484	1.000000 Head
113 1498	1.000000 Head
940 1483	1.000000 Head
1730 1479	1.000000 Head
2972 1471	1.000000 Head
210 1493	1.000000 Head
4389 1481	1.000000 Head
3968 1418	1.000000 Head
1156 1487	1.000000 Head
1160 1480	1.000000 Head
1500 1514	1.000000 Head
1083 1481	1.000000 Head
666 1600	1.000000 Head
1782 1477	1.000000 Head
2937 1482	1.000000 Head
1734 1481	1.000000 Head
2934 1483	1.000000 Head
1799 1479	1.000000 Head
1195 1479	1.000000 Head
942 1476	1.000000 Head
1792 1480	1.000000 Head
2016 1482	1.000000 Head
2940 1487	1.000000 Head
3989 1476	1.000000 Head
2939 1486	1.000000 Head
707 1479	1.000000 Head
1752 1474	1.000000 Head
617 1482	1.000000 Head
611 1477	1.000000 Head
1802 1475	1.000000 Head
2936 1476	1.000000 Head
616 1476	1.000000 Head
296 1490	1.000000 Head
706 1478	1.000000 Head
338 1480	1.000000 Head
3988 1465	1.000000 Head
1636 1486	1.000000 Head
1656 1488	1.000000 Head
1907 1474	1.000000 Head
735 1484	1.000000 Head
1984 1482	1.000000 Head
1292 1478	1.000000 Head
1691 1472	1.000000 Head
2930 1485	1.000000 Head
2931 1483	1.000000 Head
1785 1482	1.000000 Head
2927 1518	1.000000 Head
767 1487	1.000000 Head
583 1482	1.000000 Head
2928 1478	1.000000 Head
2929 1485	1.000000 Head
12595 1570	1.000000 Head
1384 1489	1.000000 Head
12593 1572	1.000000 Head
1401 1511	1.000000 Head
12591 1583	1.000000 Head
12580 1573	1.000000 Head
12597 1585	1.000000 Head
12594 1575	1.000000 Head
12588 1576	1.000000 Head
12584 1575	1.000000 Head
12602 1585	1.000000 Head
12603 1575	1.000000 Head
12592 1570	1.000000 Head
12581 1568	1.000000 Head
12589 1571	1.000000 Head
12600 1576	1.000000 Head
12585 1573	1.000000 Head
12599 1592	1.000000 Head
3963 1466	1.000000 Head
1545 1463	1.000000 Head
12587 1567	1.000000 Head
12583 1574	1.000000 Head
1645 1472	1.000000 Head
146 1489	1.000000 Head
12579 1581	1.000000 Head
1668 1505	1.000000 Head
166 1471	1.000000 Head
3961 1475	1.000000 Head
12577 1596	1.000000 Head
3971 1490	1.000000 Head
1908 1492	1.000000 Head
12578 1595	1.000000 Head
1919 1491	1.000000 Head
1255 1480	1.000000 Head
819 1504	1.000000 Head
3962 1507	1.000000 Head
3996 1524	1.000000 Head
1980 1474	1.000000 Head
851 1505	1.000000 Head
3959 1461	1.000000 Head
1928 1485	1.000000 Head
2579 1483	1.000000 Head
593 1478	1.000000 Head
4000 1585	1.000000 Head
15486 1584	1.000000 Head
3958 1480	1.000000 Head
2022 1519	1.000000 Head
4406 1540	1.000000 Head
884 1480	1.000000 Head
115 1492	1.000000 Head
3960 1462	1.000000 Head
15484 1580	1.000000 Head
15485 1580	1.000000 Head
15011 1575	1.000000 Head
1057 1473	1.000000 Head
1266 1483	1.000000 Head
3957 1503	1.000000 Head
15489 1578	1.000000 Head
15488 1585	1.000000 Head
15487 1590	1.000000 Head
3017 1499	1.000000 Head
15013 1584	1.000000 Head
15012 1585	1.000000 Head
4229 1532	1.000000 Head
3956 1521	1.000000 Head
837 1478	1.000000 Head
15010 1582	1.000000 Head
3016 1494	1.000000 Head
15006 1587	1.000000 Head
4405 1515	1.000000 Head
3955 1546	1.000000 Head
15007 1583	1.000000 Head
3011 1492	1.000000 Head
143 1503	1.000000 Head
3985 1446	1.000000 Head
840 1465	1.000000 Head
3013 1467	1.000000 Head
3951 1458	1.000000 Head
3012 1465	1.000000 Head
54 1478	1.000000 Head
3015 1468	1.000000 Head
3014 1468	1.000000 Head
3009 1474	1.000000 Head
566 1476	1.000000 Head
3986 1484	1.000000 Head
1962 1527	1.000000 Head
3010 1464	1.000000 Head
1555 1475	1.000000 Head
3005 1461	1.000000 Head
2002 1461	1.000000 Head
3007 1475	1.000000 Head
539 1521	1.000000 Head
930 1475	1.000000 Head
1039 1473	1.000000 Head
3953 1473	1.000000 Head
1979 1523	1.000000 Head
605 1467	1.000000 Head
3950 1449	1.000000 Head
4196 1458	1.000000 Head
3008 1482	1.000000 Head
1022 1468	1.000000 Head
1988 1458	1.000000 Head
1474 1468	1.000000 Head
1248 1474	1.000000 Head
1045 1484	1.000000 Head
3983 1508	1.000000 Head
671 1477	1.000000 Head
622 1476	1.000000 Head
3006 1494	1.000000 Head
3004 1442	1.000000 Head
3952 1476	1.000000 Head
821 1478	1.000000 Head
3947 1413	1.000000 Head
4228 1500	1.000000 Head
3949 1496	1.000000 Head
3003 1491	1.000000 Head
167 1516	1.000000 Head
3982 1478	1.000000 Head
1267 1428	1.000000 Head
1187 1448	1.000000 Head
1458 1490	1.000000 Head
3946 1437	1.000000 Head
14992 1569	1.000000 Head
15005 1572	1.000000 Head
7357 1565	1.000000 Head
14991 1564	1.000000 Head
14987 1564	1.000000 Head
2999 1488	1.000000 Head
201 1508	1.000000 Head
14996 1556	1.000000 Head
14868 1552	1.000000 Head
14989 1561	1.000000 Head
14993 1561	1.000000 Head
14877 1556	1.000000 Head
15000 1563	1.000000 Head
15001 1564	1.000000 Head
114 1512	1.000000 Head
3948 1488	1.000000 Head
14988 1559	1.000000 Head
14995 1555	1.000000 Head
15002 1557	1.000000 Head
2996 1434	1.000000 Head
14874 1554	1.000000 Head
1774 1430	1.000000 Head
14999 1553	1.000000 Head
3019 1532	1.000000 Head
14994 1557	1.000000 Head
14997 1550	1.000000 Head
14876 1556	1.000000 Head
14986 1557	1.000000 Head
672 1504	1.000000 Head
7260 1558	1.000000 Head
1947 1500	1.000000 Head
15004 1560	1.000000 Head
14878 1560	1.000000 Head
14903 1552	1.000000 Head
14875 1562	1.000000 Head
14904 1559	1.000000 Head
23029 1554	1.000000 Head
14933 1589	1.000000 Head
14939 1569	1.000000 Head
14990 1555	1.000000 Head
14870 1563	1.000000 Head
1016 1454	1.000000 Head
14898 1553	1.000000 Head
14873 1566	1.000000 Head
4273 1460	1.000000 Head
1742 1464	1.000000 Head
14867 1568	1.000000 Head
14897 1566	1.000000 Head
14899 1553	1.000000 Head
1278 1448	1.000000 Head
14881 1565	1.000000 Head
780 1451	1.000000 Head
14901 1553	1.000000 Head
1427 1473	1.000000 Head
4408 1575	1.000000 Head
1674 1456	1.000000 Head
631 1451	1.000000 Head
14900 1552	1.000000 Head
14882 1555	1.000000 Head
407 1514	1.000000 Head
14871 1571	1.000000 Head
1951 1457	1.000000 Head
286 1563	1.000000 Head
14932 1582	1.000000 Head
14905 1552	1.000000 Head
353 1476	1.000000 Head
15008 1582	1.000000 Head
4396 1508	1.000000 Head
14896 1554	1.000000 Head
1509 1556	1.000000 Head
513 1555	1.000000 Head
1765 1553	1.000000 Head
2990 1461	1.000000 Head
4074 1468	1.000000 Head
3049 1537	1.000000 Head
14931 1554	1.000000 Head
4257 1559	1.000000 Head
1063 1450	1.000000 Head
358 1558	1.000000 Head
14917 1577	1.000000 Head
14936 1577	1.000000 Head
14909 1564	1.000000 Head
1273 1461	1.000000 Head
14908 1581	1.000000 Head
14895 1556	1.000000 Head
14869 1557	1.000000 Head
3046 1551	1.000000 Head
14918 1585	1.000000 Head
3052 1556	1.000000 Head
1805 1463	1.000000 Head
14910 1567	1.000000 Head
14919 1588	1.000000 Head
2997 1472	1.000000 Head
7233 1562	1.000000 Head
3048 1558	1.000000 Head
14946 1587	1.000000 Head
2998 1447	1.000000 Head
1538 1554	1.000000 Head
14953 1581	1.000000 Head
4102 1499	1.000000 Head
9 1482	1.000000 Head
14893 1549	1.000000 Head
1130 1554	1.000000 Head
3047 1555	1.000000 Head
14872 1563	1.000000 Head
14950 1556	1.000000 Head
106 1571	1.000000 Head
1021 1554	1.000000 Head
1517 1499	1.000000 Head
14914 1589	1.000000 Head
4073 1467	1.000000 Head
2983 1449	1.000000 Head
14937 1592	1.000000 Head
14892 1561	1.000000 Head
238 1564	1.000000 Head
14951 1562	1.000000 Head
14935 1590	1.000000 Head
14940 1576	1.000000 Head
14894 1558	1.000000 Head
14866 1562	1.000000 Head
762 1551	1.000000 Head
3043 1548	1.000000 Head
14915 1545	1.000000 Head
14938 1582	1.000000 Head
14911 1576	1.000000 Head
569 1479	1.000000 Head
1034 1508	1.000000 Head
14922 1547	1.000000 Head
2984 1443	1.000000 Head
15157 1588	1.000000 Head
2989 1451	1.000000 Head
4101 1567	1.000000 Head
14924 1574	1.000000 Head
4392 1503	1.000000 Head
14925 1551	1.000000 Head
105 1539	1.000000 Head
1722 1490	1.000000 Head
14883 1554	1.000000 Head
14886 1549	1.000000 Head
14884 1554	1.000000 Head
14885 1549	1.000000 Head
4391 1485	1.000000 Head
14916 1586	1.000000 Head
3050 1543	1.000000 Head
3044 1534	1.000000 Head
14880 1552	1.000000 Head
4100 1450	1.000000 Head
869 1448	1.000000 Head
14889 1547	1.000000 Head
14887 1561	1.000000 Head
1089 1449	1.000000 Head
7758 1588	1.000000 Head
14891 1554	1.000000 Head
602 1490	1.000000 Head
14920 1561	1.000000 Head
14912 1594	1.000000 Head
14923 1548	1.000000 Head
14861 1564	1.000000 Head
14930 1567	1.000000 Head
1020 1550	1.000000 Head
14913 1589	1.000000 Head
14926 1561	1.000000 Head
4153 1545	1.000000 Head
1042 1538	1.000000 Head
676 1546	1.000000 Head
889 1463	1.000000 Head
3018 1515	1.000000 Head
1134 1544	1.000000 Head
294 1532	1.000000 Head
3020 1551	1.000000 Head
14857 1557	1.000000 Head
1353 1557	1.000000 Head
14855 1568	1.000000 Head
4155 1526	1.000000 Head
3045 1570	1.000000 Head
137 1559	1.000000 Head
14927 1564	1.000000 Head
14858 1572	1.000000 Head
445 1464	1.000000 Head
418 1568	1.000000 Head
15126 1584	1.000000 Head
3037 1547	1.000000 Head
4407 1558	1.000000 Head
3039 1564	1.000000 Head
3040 1551	1.000000 Head
3042 1536	1.000000 Head
14849 1554	1.000000 Head
7231 1585	1.000000 Head
7642 1585	1.000000 Head
974 1542	1.000000 Head
14848 1572	1.000000 Head
7711 1589	1.000000 Head
2981 1505	1.000000 Head
14865 1571	1.000000 Head
15123 1566	1.000000 Head
1312 1550	1.000000 Head
14860 1601	1.000000 Head
15124 1562	1.000000 Head
14851 1571	1.000000 Head
15118 1569	1.000000 Head
14859 1601	1.000000 Head
15127 1580	1.000000 Head
1094 1554	1.000000 Head
14862 1600	1.000000 Head
4072 1439	1.000000 Head
3041 1544	1.000000 Head
2982 1455	1.000000 Head
15117 1562	1.000000 Head
207 1570	1.000000 Head
14853 1596	1.000000 Head
291 1572	1.000000 Head
648 1543	1.000000 Head
14846 1585	1.000000 Head
14863 1553	1.000000 Head
3084 1519	1.000000 Head
23155 1560	1.000000 Head
402 1576	1.000000 Head
19787 1568	1.000000 Head
1420 1546	1.000000 Head
1482 1540	1.000000 Head
204 1499	1.000000 Head
19808 1549	1.000000 Head
1566 1544	1.000000 Head
21140 1586	1.000000 Head
19871 1569	1.000000 Head
2387 1540	1.000000 Head
2388 1553	1.000000 Head
3086 1533	1.000000 Head
1652 1548	1.000000 Head
3090 1550	1.000000 Head
603 1530	1.000000 Head
4069 1475	1.000000 Head
20496 1569	1.000000 Head
702 1518	1.000000 Head
3091 1549	1.000000 Head
4268 1564	1.000000 Head
236 1556	1.000000 Head
1477 1552	1.000000 Head
1739 1534	1.000000 Head
3092 1538	1.000000 Head
237 1568	1.000000 Head
4145 1519	1.000000 Head
1171 1536	1.000000 Head
1910 1538	1.000000 Head
3087 1533	1.000000 Head
2389 1551	1.000000 Head
928 1519	1.000000 Head
3088 1515	1.000000 Head
3085 1559	1.000000 Head
21088 1565	1.000000 Head
19327 1590	1.000000 Head
27060 1528	1.000000 Head
2384 1556	1.000000 Head
1925 1551	1.000000 Head
703 1555	1.000000 Head
86 1539	1.000000 Head
1309 1537	1.000000 Head
3083 1479	1.000000 Head
1698 1495	1.000000 Head
21116 1562	1.000000 Head
21294 1558	1.000000 Head
4099 1509	1.000000 Head
470 1561	1.000000 Head
1601 1555	1.000000 Head
21191 1568	1.000000 Head
369 1474	1.000000 Head
1163 1554	1.000000 Head
19712 1548	1.000000 Head
419 1540	1.000000 Head
3082 1496	1.000000 Head
23157 1580	1.000000 Head
28163 1590	1.000000 Head
1275 1550	1.000000 Head
2383 1549	1.000000 Head
2380 1553	1.000000 Head
19697 1522	1.000000 Head
21095 1558	1.000000 Head
1339 1548	1.000000 Head
18990 1560	1.000000 Head
2381 1549	1.000000 Head
1982 1526	1.000000 Head
20062 1579	1.000000 Head
23156 1583	1.000000 Head
2385 1551	1.000000 Head
350 1541	1.000000 Head
19326 1567	1.000000 Head
19341 1564	1.000000 Head
2382 1552	1.000000 Head
4098 1518	1.000000 Head
1707 1481	1.000000 Head
571 1459	1.000000 Head
23151 1554	1.000000 Head
1274 1552	1.000000 Head
19711 1585	1.000000 Head
138 1567	1.000000 Head
21603 1574	1.000000 Head
949 1557	1.000000 Head
20754 1566	1.000000 Head
3183 1527	1.000000 Head
1237 1526	1.000000 Head
1670 1565	1.000000 Head
1923 1542	1.000000 Head
1967 1555	1.000000 Head
27966 1553	1.000000 Head
28181 1568	1.000000 Head
919 1458	1.000000 Head
23152 1553	1.000000 Head
1735 1514	1.000000 Head
1397 1554	1.000000 Head
4144 1554	1.000000 Head
1065 1545	1.000000 Head
483 1568	1.000000 Head
18489 1575	1.000000 Head
22558 1577	1.000000 Head
2373 1532	1.000000 Head
2372 1547	1.000000 Head
19148 1562	1.000000 Head
19614 1561	1.000000 Head
28148 1572	1.000000 Head
28244 1597	1.000000 Head
1807 1547	1.000000 Head
2370 1551	1.000000 Head
20239 1555	1.000000 Head
1937 1556	1.000000 Head
2374 1549	1.000000 Head
203 1556	1.000000 Head
2371 1546	1.000000 Head
2377 1541	1.000000 Head
2356 1546	1.000000 Head
20118 1575	1.000000 Head
828 1547	1.000000 Head
1080 1549	1.000000 Head
838 1540	1.000000 Head
2357 1546	1.000000 Head
1727 1514	1.000000 Head
2378 1546	1.000000 Head
2379 1534	1.000000 Head
4143 1555	1.000000 Head
922 1543	1.000000 Head
23150 1547	1.000000 Head
880 1546	1.000000 Head
1313 1553	1.000000 Head
573 1551	1.000000 Head
23136 1599	1.000000 Head
776 1545	1.000000 Head
155 1531	1.000000 Head
4067 1492	1.000000 Head
1003 1542	1.000000 Head
23149 1561	1.000000 Head
23145 1565	1.000000 Head
18988 1594	1.000000 Head
21824 1572	1.000000 Head
21390 1554	1.000000 Head
4258 1552	1.000000 Head
19481 1608	1.000000 Head
27626 1590	1.000000 Head
20151 1598	1.000000 Head
23134 1593	1.000000 Head
1711 1551	1.000000 Head
18497 1551	1.000000 Head
23143 1561	1.000000 Head
22582 1573	1.000000 Head
27675 1576	1.000000 Head
23144 1572	1.000000 Head
334 1530	1.000000 Head
2367 1554	1.000000 Head
4 1550	1.000000 Head
4219 1550	1.000000 Head
3206 1558	1.000000 Head
23140 1567	1.000000 Head
586 1537	1.000000 Head
1196 1531	1.000000 Head
968 1543	1.000000 Head
905 1560	1.000000 Head
23148 1574	1.000000 Head
18741 1570	1.000000 Head
19782 1537	1.000000 Head
23142 1568	1.000000 Head
1483 1546	1.000000 Head
4181 1542	1.000000 Head
343 1551	1.000000 Head
1303 1563	1.000000 Head
1704 1539	1.000000 Head
23138 1587	1.000000 Head
20108 1600	1.000000 Head
2368 1538	1.000000 Head
2369 1520	1.000000 Head
18528 1599	1.000000 Head
81 1522	1.000000 Head
568 1547	1.000000 Head
1002 1550	1.000000 Head
4097 1468	1.000000 Head
23139 1594	1.000000 Head
21109 1603	1.000000 Head
1437 1468	1.000000 Head
20936 1605	1.000000 Head
920 1482	1.000000 Head
453 1504	1.000000 Head
1516 1466	1.000000 Head
19746 1595	1.000000 Head
4184 1508	1.000000 Head
20749 1544	1.000000 Head
21634 1585	1.000000 Head
22685 1584	1.000000 Head
20543 1548	1.000000 Head
130 1525	1.000000 Head
1413 1514	1.000000 Head
28092 1546	1.000000 Head
22654 1592	1.000000 Head
21202 1592	1.000000 Head
2358 1544	1.000000 Head
23131 1591	1.000000 Head
27840 1592	1.000000 Head
20885 1588	1.000000 Head
19927 1542	1.000000 Head
23127 1590	1.000000 Head
23128 1591	1.000000 Head
1558 1462	1.000000 Head
18862 1595	1.000000 Head
23118 1563	1.000000 Head
23119 1563	1.000000 Head
23113 1554	1.000000 Head
537 1472	1.000000 Head
3073 1491	1.000000 Head
19693 1594	1.000000 Head
28276 1578	1.000000 Head
19381 1587	1.000000 Head
18880 1590	1.000000 Head
944 1547	1.000000 Head
596 1472	1.000000 Head
3033 1471	1.000000 Head
1123 1568	1.000000 Head
20388 1573	1.000000 Head
23120 1608	1.000000 Head
23130 1585	1.000000 Head
23133 1580	1.000000 Head
27380 1591	1.000000 Head
3031 1473	1.000000 Head
27917 1578	1.000000 Head
3171 1562	1.000000 Head
2000 1494	1.000000 Head
23117 1545	1.000000 Head
3032 1513	1.000000 Head
19425 1568	1.000000 Head
23111 1554	1.000000 Head
22841 1587	1.000000 Head
1755 1507	1.000000 Head
3200 1555	1.000000 Head
20438 1591	1.000000 Head
3204 1561	1.000000 Head
3202 1559	1.000000 Head
897 1568	1.000000 Head
3205 1556	1.000000 Head
1796 1557	1.000000 Head
21227 1614	1.000000 Head
1789 1555	1.000000 Head
23112 1551	1.000000 Head
27010 1582	1.000000 Head
1265 1509	1.000000 Head
28062 1561	1.000000 Head
1975 1555	1.000000 Head
1976 1561	1.000000 Head
23126 1591	1.000000 Head
20082 1578	1.000000 Head
23114 1550	1.000000 Head
23116 1552	1.000000 Head
2028 1572	1.000000 Head
868 1555	1.000000 Head
4267 1528	1.000000 Head
955 1560	1.000000 Head
953 1567	1.000000 Head
1797 1571	1.000000 Head
18966 1590	1.000000 Head
3034 1511	1.000000 Head
1977 1511	1.000000 Head
178 1519	1.000000 Head
27821 1598	1.000000 Head
3035 1495	1.000000 Head
23125 1617	1.000000 Head
480 1589	1.000000 Head
4096 1507	1.000000 Head
918 1569	1.000000 Head
27681 1585	1.000000 Head
19232 1594	1.000000 Head
3203 1565	1.000000 Head
19243 1603	1.000000 Head
20409 1592	1.000000 Head
783 1519	1.000000 Head
867 1562	1.000000 Head
19918 1592	1.000000 Head
967 1509	1.000000 Head
20690 1589	1.000000 Head
19093 1593	1.000000 Head
23132 1613	1.000000 Head
27015 1603	1.000000 Head
23124 1586	1.000000 Head
4126 1599	1.000000 Head
1412 1570	1.000000 Head
1364 1502	1.000000 Head
136 1592	1.000000 Head
1779 1518	1.000000 Head
444 1559	1.000000 Head
3182 1523	1.000000 Head
20177 1602	1.000000 Head
1366 1525	1.000000 Head
3178 1575	1.000000 Head
4227 1530	1.000000 Head
47 1524	1.000000 Head
4094 1513	1.000000 Head
985 1506	1.000000 Head
1037 1512	1.000000 Head
3070 1528	1.000000 Head
3100 1572	1.000000 Head
18821 1581	1.000000 Head
20283 1601	1.000000 Head
1535 1569	1.000000 Head
23024 1597	1.000000 Head
1494 1515	1.000000 Head
754 1498	1.000000 Head
3071 1523	1.000000 Head
20550 1597	1.000000 Head
482 1592	1.000000 Head
23027 1598	1.000000 Head
370 1575	1.000000 Head
3024 1535	1.000000 Head
481 1559	1.000000 Head
142 1544	1.000000 Head
1883 1567	1.000000 Head
1897 1484	1.000000 Head
22967 1586	1.000000 Head
4095 1529	1.000000 Head
4266 1557	1.000000 Head
533 1521	1.000000 Head
799 1545	1.000000 Head
1174 1532	1.000000 Head
4125 1534	1.000000 Head
1747 1566	1.000000 Head
1428 1548	1.000000 Head
364 1521	1.000000 Head
670 1500	1.000000 Head
1270 1570	1.000000 Head
23110 1596	1.000000 Head
1556 1549	1.000000 Head
3181 1570	1.000000 Head
3099 1539	1.000000 Head
469 1502	1.000000 Head
290 1573	1.000000 Head
3180 1558	1.000000 Head
1600 1552	1.000000 Head
938 1491	1.000000 Head
154 1534	1.000000 Head
10 1529	1.000000 Head
625 1559	1.000000 Head
3179 1558	1.000000 Head
3067 1502	1.000000 Head
3069 1501	1.000000 Head
1673 1514	1.000000 Head
4059 1511	1.000000 Head
3068 1455	1.000000 Head
1788 1489	1.000000 Head
109 1521	1.000000 Head
1307 1536	1.000000 Head
1306 1531	1.000000 Head
3065 1487	1.000000 Head
3098 1584	1.000000 Head
4154 1580	1.000000 Head
1891 1495	1.000000 Head
668 1497	1.000000 Head
1561 1562	1.000000 Head
570 1547	1.000000 Head
3066 1489	1.000000 Head
3176 1564	1.000000 Head
1687 1563	1.000000 Head
1936 1503	1.000000 Head
333 1572	1.000000 Head
3095 1563	1.000000 Head
3198 1567	1.000000 Head
23026 1598	1.000000 Head
1457 1524	1.000000 Head
3190 1572	1.000000 Head
770 1564	1.000000 Head
1168 1564	1.000000 Head
1544 1577	1.000000 Head
3197 1566	1.000000 Head
1449 1573	1.000000 Head
1301 1570	1.000000 Head
487 1551	1.000000 Head
1489 1568	1.000000 Head
3177 1570	1.000000 Head
3196 1571	1.000000 Head
1106 1565	1.000000 Head
27471 1585	1.000000 Head
450 1600	1.000000 Head
3194 1589	1.000000 Head
3096 1564	1.000000 Head
832 1565	1.000000 Head
3064 1539	1.000000 Head
23015 1589	1.000000 Head
3195 1560	1.000000 Head
4124 1556	1.000000 Head
23017 1591	1.000000 Head
725 1567	1.000000 Head
7 1605	1.000000 Head
23013 1571	1.000000 Head
990 1565	1.000000 Head
19786 1587	1.000000 Head
1572 1569	1.000000 Head
23021 1582	1.000000 Head
1367 1573	1.000000 Head
1675 1567	1.000000 Head
4123 1592	1.000000 Head
3187 1567	1.000000 Head
20987 1578	1.000000 Head
902 1571	1.000000 Head
23016 1597	1.000000 Head
22299 1591	1.000000 Head
1228 1566	1.000000 Head
1627 1564	1.000000 Head
23019 1578	1.000000 Head
3192 1569	1.000000 Head
3199 1565	1.000000 Head
624 1568	1.000000 Head
961 1567	1.000000 Head
3093 1567	1.000000 Head
3189 1564	1.000000 Head
874 1572	1.000000 Head
3175 1525	1.000000 Head
3097 1564	1.000000 Head
3186 1587	1.000000 Head
3094 1583	1.000000 Head
3185 1601	1.000000 Head
3188 1550	1.000000 Head
3191 1547	1.000000 Head
1365 1567	1.000000 Head
954 1595	1.000000 Head
486 1553	1.000000 Head
722 1556	1.000000 Head
465 1565	1.000000 Head
753 1565	1.000000 Head
1311 1566	1.000000 Head
3054 1534	1.000000 Head
565 1535	1.000000 Head
27295 1582	1.000000 Head
23010 1579	1.000000 Head
490 1545	1.000000 Head
21479 1585	1.000000 Head
4122 1579	1.000000 Head
3172 1587	1.000000 Head
23011 1588	1.000000 Head
3184 1575	1.000000 Head
3173 1579	1.000000 Head
4414 1601	1.000000 Head
3174 1569	1.000000 Head
4413 1596	1.000000 Head
21084 1584	1.000000 Head
20887 1584	1.000000 Head
21893 1586	1.000000 Head
4121 1567	1.000000 Head
4127 1548	1.000000 Head
5915 1612	1.000000 Head
5769 1575	1.000000 Head
5916 1588	1.000000 Head
5918 1583	1.000000 Head
5917 1565	1.000000 Head
5911 1580	1.000000 Head
5920 1572	1.000000 Head
5935 1573	1.000000 Head
5768 1553	1.000000 Head
5919 1592	1.000000 Head
5913 1575	1.000000 Head
5912 1578	1.000000 Head
5914 1587	1.000000 Head
5909 1594	1.000000 Head
5901 1592	1.000000 Head
5906 1600	1.000000 Head
5908 1597	1.000000 Head
5934 1591	1.000000 Head
5890 1569	1.000000 Head
5905 1591	1.000000 Head
5884 1581	1.000000 Head
5904 1590	1.000000 Head
5892 1575	1.000000 Head