pcf
* control data
restart estimation
6 1233 4 0 2
1  1  double  point  1  0  0
25.0   -3.0    0.3    0.03    12  999	  LAMFORGIVE
1.000000e+001  1.000000e+001  1.000000e-003
1.000000e-001 aui
30  1.000000e-002  3  3  1.000000e-002  3 
1  1  1
* parameter groups
Kh     relative   1.000000e-002  0.000000e+000  switch  2.000000e+000  parabolic
Base   relative   1.000000e-002  0.000000e+000  switch  2.000000e+000  parabolic
Rch    relative   1.000000e-002  0.000000e+000  switch  2.000000e+000  parabolic
Res    relative   1.000000e-002  0.000000e+000  switch  2.000000e+000  parabolic
* parameter data
KParkFalls__	log   factor   7.4	 .74	 74	Kh     1.0      0.0 1
BParkFalls__	fixed   factor   1300	 1250	 1350	Base   1.0      0.0   1
PFrecharge__	none  factor  2.093964695 .15971   15.971	Rch   -0.001   0.0   1
Cdrainage___	log   factor   .1	 .01	 1	Res    1.0      0.0 1
Cseepage____	log   factor   21	 2.1	 210	Res    1.0      0.0 1
Cstream_____	log   factor  .05	 .005	 .5	Res    1.0      0.0 1
* observation groups
Head
Streamflow
* observation data
7551        1570    1.00   head
8196        1569    0.20   head
8197        1581    0.20   head
8200        1528    0.20   head
8199        1528    0.20   head
8198        1520    0.20   head
3653        1570    1.00   head
8201        1535    0.20   head
8194        1599    0.20   head
8190        1569    0.20   head
8195        1581    0.20   head
8193        1597    0.20   head
8187        1561    0.20   head
655         1635    1.00   head
2828        1652    1.00   head
39          1671    0.05   head
214         1691    0.20   head
8186        1629    0.20   head
560         1665    1.00   head
760         1665    0.05   head
1161        1669    1.00   head
1530        1650    0.05   head
1954        1665    1.00   head
3876        1581    1.00   head
10650       1610    0.20   head
3869        1588    1.00   head
2924        1662    0.20   head
1563        1660    1.00   head
3872        1637    1.00   head
3871        1657    1.00   head
3870        1656    1.00   head
2923        1638    0.05   head
3875        1694    1.00   head
1105        1675    1.00   head
630         1675    1.00   head
3861        1671    1.00   head
4206        1711    0.20   head
1888        1666    1.00   head
3860        1637    1.00   head
3874        1698    1.00   head
3873        1691    1.00   head
589         1656    1.00   head
3862        1678    1.00   head
3863        1694    1.00   head
2013        1654    1.00   head
2027        1654    1.00   head
785         1642    1.00   head
2731        1636    0.05   head
4205        1684    0.05   head
1101        1665    1.00   head
766         1617    0.05   head
3859        1610    1.00   head
2922        1692    0.05   head
3855        1653    1.00   head
3853        1605    1.00   head
423         1698    0.05   head
7769        1552    0.20   head
10618       1549    0.20   head
3852        1640    1.00   head
10640       1553    0.20   head
10639       1546    1.00   head
10649       1553    0.20   head
10645       1547    0.20   head
10642       1567    0.20   head
10643       1549    0.20   head
10641       1541    0.20   head
10648       1567    0.20   head
3849        1595    1.00   head
10634       1553    0.20   head
10617       1548    0.20   head
2921        1678    0.05   head
10622       1536    0.20   head
10647       1554    0.20   head
3850        1636    1.00   head
10638       1549    0.20   head
10646       1557    0.20   head
10632       1547    0.20   head
10633       1548    0.20   head
10630       1558    0.20   head
10635       1551    0.20   head
10631       1553    0.20   head
10636       1548    0.20   head
3848        1610    1.00   head
10619       1562    0.20   head
10637       1552    0.20   head
10616       1552    0.20   head
2729        1627    1.00   head
10620       1544    0.20   head
10613       1549    0.20   head
3846        1528    1.00   head
10625       1556    0.20   head
10629       1555    0.20   head
10615       1554    0.20   head
10623       1556    0.20   head
10627       1547    0.20   head
10626       1552    0.20   head
10614       1546    0.20   head
7522        1552    0.20   head
10628       1548    0.20   head
2916        1616    1.00   head
10624       1545    0.20   head
3851        1632    1.00   head
2915        1712    0.05   head
4386        1639    0.05   head
3778        1464    1.00   head
10611       1563    0.20   head
10609       1575    0.20   head
2914        1708    1.00   head
7521        1572    0.20   head
10610       1553    0.20   head
3780        1431    1.00   head
10604       1555    0.20   head
7662        1561    1.00   head
10596       1547    0.20   head
10594       1547    1.00   head
10595       1546    0.20   head
557         1710    1.00   head
10606       1563    0.20   head
3847        1552    1.00   head
10597       1548    0.20   head
10601       1549    0.20   head
10593       1557    0.20   head
10607       1573    0.20   head
10605       1559    0.20   head
3776        1503    1.00   head
2960        1457    1.00   head
2963        1475    1.00   head
2961        1451    0.05   head
820         1456    1.00   head
3775        1480    0.20   head
1605        1479    1.00   head
10598       1550    0.20   head
802         1503    1.00   head
10612       1545    0.20   head
1995        1467    1.00   head
1771        1494    1.00   head
10600       1550    0.20   head
3143        1466    1.00   head
12622       1560    0.20   head
863         1538    1.00   head
363         1513    1.00   head
1772        1478    1.00   head
1808        1496    1.00   head
3146        1526    1.00   head
674         1482    1.00   head
2959        1472    1.00   head
1119        1494    1.00   head
12621       1537    0.20   head
1118        1485    1.00   head
972         1483    1.00   head
12630       1552    0.20   head
12631       1567    0.20   head
1051        1476    1.00   head
2978        1494    1.00   head
710         1493    1.00   head
2977        1489    0.20   head
2976        1497    1.00   head
610         1500    1.00   head
3765        1489    1.00   head
12624       1552    1.00   head
1606        1485    1.00   head
12628       1559    0.20   head
1252        1489    1.00   head
12629       1560    0.20   head
1804        1487    1.00   head
12627       1542    0.20   head
12611       1553    0.20   head
2980        1501    1.00   head
1721        1493    1.00   head
1357        1488    1.00   head
1356        1494    1.00   head
2965        1464    1.00   head
936         1483    1.00   head
78          1494    0.20   head
12632       1548    0.20   head
846         1482    1.00   head
2968        1481    1.00   head
1879        1490    1.00   head
1767        1469    0.20   head
643         1484    0.05   head
574         1493    1.00   head
4390        1491    0.05   head
2967        1480    1.00   head
957         1487    1.00   head
1448        1490    1.00   head
1654        1471    0.05   head
2970        1471    1.00   head
2964        1485    1.00   head
915         1485    1.00   head
2979        1531    0.05   head
1470        1491    1.00   head
796         1485    1.00   head
301         1504    0.20   head
1201        1520    1.00   head
1219        1477    0.20   head
2946        1479    1.00   head
12625       1557    0.20   head
1945        1480    0.20   head
12618       1562    0.20   head
500         1480    1.00   head
835         1496    1.00   head
1104        1474    1.00   head
12617       1545    0.20   head
1077        1476    1.00   head
1205        1487    1.00   head
12619       1544    0.20   head
711         1477    0.20   head
1044        1459    1.00   head
12620       1550    0.20   head
1526        1482    1.00   head
761         1492    1.00   head
1379        1484    1.00   head
1199        1481    1.00   head
1066        1486    0.05   head
2966        1496    0.20   head
3138        1488    1.00   head
3773        1480    1.00   head
2969        1489    0.20   head
478         1491    0.20   head
129         1497    0.20   head
1790        1486    1.00   head
1934        1493    1.00   head
3774        1496    0.20   head
4250        1477    0.20   head
721         1477    0.20   head
325         1506    0.20   head
3845        1510    0.20   head
12623       1555    0.20   head
759         1484    1.00   head
12612       1545    0.20   head
2974        1500    1.00   head
3844        1510    1.00   head
1778        1492    0.20   head
3767        1490    1.00   head
907         1493    1.00   head
1159        1549    0.05   head
1476        1486    1.00   head
2973        1492    0.05   head
739         1470    1.00   head
3137        1473    0.05   head
2954        1489    1.00   head
2957        1492    1.00   head
2955        1494    1.00   head
2958        1489    1.00   head
2953        1490    1.00   head
3770        1454    1.00   head
887         1490    0.20   head
3766        1526    0.05   head
59          1542    0.20   head
12607       1548    0.20   head
12610       1547    0.20   head
1890        1463    1.00   head
2943        1474    0.20   head
572         1480    1.00   head
2956        1518    0.05   head
2941        1484    0.05   head
248         1500    0.20   head
12613       1551    0.20   head
1913        1480    1.00   head
2944        1504    0.05   head
1885        1483    1.00   head
3769        1496    1.00   head
3768        1480    0.20   head
1720        1480    1.00   head
1220        1506    1.00   head
12609       1551    0.20   head
1950        1489    1.00   head
585         1497    1.00   head
1202        1483    0.20   head
3771        1461    1.00   head
12605       1550    0.20   head
3772        1518    1.00   head
1358        1514    1.00   head
246         1532    0.20   head
3969        1497    1.00   head
635         1518    1.00   head
220         1522    0.05   head
12606       1552    0.20   head
1589        1482    1.00   head
3997        1506    1.00   head
1135        1483    1.00   head
144         1539    0.05   head
2945        1485    1.00   head
891         1517    0.05   head
12604       1552    0.20   head
3990        1492    1.00   head
4216        1488    0.20   head
1031        1482    1.00   head
2942        1496    1.00   head
295         1634    0.05   head
2971        1553    0.05   head
1904        1482    1.00   head
658         1484    1.00   head
113         1498    0.20   head
940         1483    1.00   head
1730        1479    1.00   head
2972        1471    0.05   head
210         1493    0.20   head
4389        1481    0.05   head
3968        1478    1.00   head
1156        1487    1.00   head
1160        1480    0.20   head
1500        1514    0.20   head
1083        1481    1.00   head
666         1600    1.00   head
1782        1477    1.00   head
2937        1482    0.05   head
1734        1481    1.00   head
2934        1483    0.20   head
1799        1479    0.20   head
1195        1479    1.00   head
942         1476    0.20   head
1792        1480    1.00   head
2016        1482    0.20   head
2940        1487    1.00   head
3989        1476    1.00   head
2939        1486    1.00   head
707         1479    1.00   head
1752        1474    1.00   head
617         1482    0.20   head
611         1477    1.00   head
1802        1475    1.00   head
2936        1476    0.05   head
616         1476    1.00   head
296         1490    0.20   head
706         1478    0.20   head
338         1480    1.00   head
3988        1465    0.05   head
1636        1486    0.20   head
1656        1488    1.00   head
1907        1474    1.00   head
735         1484    1.00   head
1984        1482    0.20   head
1292        1478    1.00   head
1691        1472    1.00   head
2930        1485    1.00   head
2931        1483    0.05   head
1785        1482    1.00   head
2927        1518    0.05   head
767         1487    1.00   head
583         1482    1.00   head
2928        1478    1.00   head
2929        1485    0.05   head
12595       1570    0.20   head
1384        1489    1.00   head
12593       1572    0.20   head
1401        1511    0.20   head
12591       1583    0.20   head
12580       1573    0.20   head
12597       1585    0.20   head
12594       1575    0.20   head
12588       1576    0.20   head
12584       1575    0.20   head
12602       1585    0.20   head
12603       1575    0.20   head
12592       1570    0.20   head
12581       1568    0.20   head
12589       1571    0.20   head
12600       1576    0.20   head
12585       1573    0.20   head
12599       1592    0.20   head
3963        1466    1.00   head
1545        1463    0.20   head
12587       1567    1.00   head
12583       1574    0.20   head
1645        1472    0.20   head
146         1489    0.20   head
12579       1581    0.20   head
1668        1505    0.20   head
166         1471    0.20   head
3961        1475    1.00   head
12577       1596    0.20   head
3971        1490    1.00   head
1908        1492    0.20   head
12578       1595    0.20   head
1919        1491    0.20   head
1255        1480    0.20   head
819         1504    0.20   head
3962        1507    1.00   head
3996        1524    1.00   head
1980        1474    0.20   head
851         1505    1.00   head
3959        1461    1.00   head
1928        1485    0.20   head
2579        1483    0.20   head
593         1478    0.20   head
4000        1585    0.20   head
15486       1584    0.20   head
3958        1480    1.00   head
2022        1519    0.20   head
4406        1540    0.05   head
884         1480    0.20   head
115         1492    0.20   head
3960        1462    1.00   head
15484       1580    0.20   head
15485       1580    0.20   head
15011       1575    0.20   head
1057        1473    0.20   head
1266        1483    0.20   head
3957        1503    1.00   head
15489       1578    0.20   head
15488       1585    0.20   head
15487       1590    0.20   head
3017        1499    0.20   head
15013       1584    0.20   head
15012       1585    0.20   head
4229        1532    0.20   head
3956        1521    1.00   head
837         1478    0.20   head
15010       1582    0.20   head
3016        1494    0.20   head
15006       1587    0.20   head
4405        1515    0.20   head
3955        1511    1.00   head
15007       1583    0.20   head
3011        1492    1.00   head
143         1503    0.05   head
3985        1446    1.00   head
840         1465    0.20   head
3013        1467    0.05   head
3951        1458    1.00   head
3012        1465    0.05   head
54          1478    0.20   head
3015        1468    0.20   head
3014        1468    1.00   head
3009        1474    0.05   head
566         1476    1.00   head
3986        1484    0.20   head
1962        1527    1.00   head
3010        1464    0.20   head
1555        1475    0.20   head
3005        1461    0.20   head
2002        1461    0.20   head
3007        1475    0.05   head
539         1521    0.20   head
930         1475    1.00   head
1039        1473    1.00   head
3953        1473    1.00   head
1979        1523    1.00   head
605         1467    0.20   head
3950        1449    1.00   head
4196        1458    0.20   head
3008        1482    1.00   head
1022        1468    0.20   head
1988        1458    0.20   head
1474        1468    1.00   head
1248        1474    1.00   head
1045        1484    1.00   head
3983        1508    0.20   head
671         1477    1.00   head
622         1476    0.20   head
3006        1494    1.00   head
3004        1442    0.20   head
3952        1476    1.00   head
821         1478    1.00   head
3947        1413    1.00   head
4228        1500    0.20   head
3949        1496    1.00   head
3003        1491    0.20   head
167         1516    0.20   head
3982        1478    1.00   head
1267        1428    0.20   head
1187        1448    0.20   head
1458        1490    0.20   head
3946        1437    1.00   head
14992       1569    0.20   head
15005       1572    0.20   head
7357        1565    1.00   head
14991       1564    0.20   head
14987       1564    0.20   head
2999        1488    1.00   head
201         1508    0.20   head
14996       1556    0.20   head
14868       1552    1.00   head
14989       1561    0.20   head
14993       1561    0.20   head
14877       1556    0.20   head
15000       1563    0.20   head
15001       1564    0.20   head
114         1512    0.20   head
3948        1488    1.00   head
14988       1559    0.20   head
14995       1555    0.20   head
15002       1557    0.20   head
2996        1434    0.20   head
14874       1554    0.20   head
1774        1430    0.20   head
14999       1553    0.20   head
3019        1532    0.05   head
14994       1557    0.20   head
14997       1550    0.20   head
14876       1556    0.20   head
14986       1557    0.20   head
672         1504    0.20   head
7260        1558    0.20   head
1947        1500    0.20   head
15004       1560    0.20   head
14878       1560    0.20   head
14903       1552    1.00   head
14875       1562    0.20   head
14904       1559    0.20   head
23029       1554    0.20   head
14933       1589    0.20   head
14939       1569    0.20   head
14990       1555    0.20   head
14870       1563    0.20   head
1016        1454    0.20   head
14898       1553    0.20   head
14873       1566    0.20   head
4273        1460    0.20   head
1742        1464    0.20   head
14867       1568    0.20   head
14897       1566    0.20   head
14899       1553    0.20   head
1278        1448    0.20   head
14881       1565    0.20   head
780         1451    1.00   head
14901       1553    0.20   head
1427        1473    1.00   head
4408        1575    0.05   head
1674        1456    0.20   head
631         1451    1.00   head
14900       1552    0.20   head
14882       1555    0.20   head
407         1514    0.20   head
14871       1571    0.20   head
1951        1457    0.20   head
286         1563    0.20   head
14932       1582    0.20   head
14905       1552    0.20   head
353         1476    1.00   head
15008       1582    0.20   head
4396        1508    0.20   head
14896       1554    0.20   head
1509        1556    1.00   head
513         1555    1.00   head
1765        1553    1.00   head
2990        1461    0.20   head
4074        1468    1.00   head
3049        1537    0.20   head
14931       1554    0.20   head
4257        1559    0.20   head
1063        1450    0.20   head
358         1558    1.00   head
14917       1577    0.20   head
14936       1577    0.20   head
14909       1564    0.20   head
1273        1461    0.20   head
14908       1581    0.20   head
14895       1556    0.20   head
14869       1557    0.20   head
3046        1551    1.00   head
14918       1585    0.20   head
3052        1556    0.05   head
1805        1463    0.20   head
14910       1567    0.20   head
14919       1588    0.20   head
2997        1472    1.00   head
7233        1562    0.20   head
3048        1558    1.00   head
14946       1587    0.20   head
2998        1447    1.00   head
1538        1554    1.00   head
14953       1581    0.20   head
4102        1499    1.00   head
9           1482    0.20   head
14893       1549    0.20   head
1130        1554    1.00   head
3047        1555    1.00   head
14872       1563    0.20   head
14950       1556    0.20   head
106         1571    0.20   head
1021        1554    0.20   head
1517        1499    1.00   head
14914       1589    0.20   head
4073        1467    0.20   head
2983        1449    1.00   head
14937       1592    0.20   head
14892       1561    0.20   head
238         1564    1.00   head
14951       1562    0.20   head
14935       1590    0.20   head
14940       1576    0.20   head
14894       1558    0.20   head
14866       1562    0.20   head
762         1551    1.00   head
3043        1548    1.00   head
14915       1545    0.20   head
14938       1582    0.20   head
14911       1576    0.20   head
569         1479    1.00   head
1034        1508    0.20   head
14922       1547    0.20   head
2984        1443    0.05   head
15157       1588    0.20   head
2989        1451    0.20   head
4101        1567    1.00   head
14924       1574    0.20   head
4392        1503    0.05   head
14925       1551    0.20   head
105         1539    0.20   head
1722        1490    1.00   head
14883       1554    0.20   head
14886       1549    0.20   head
14884       1554    0.20   head
14885       1549    0.20   head
4391        1485    0.20   head
14916       1586    0.20   head
3050        1543    0.05   head
3044        1534    0.05   head
14880       1552    0.20   head
4100        1450    1.00   head
869         1448    1.00   head
14889       1547    0.20   head
14887       1561    0.20   head
1089        1449    1.00   head
7758        1588    0.20   head
14891       1554    0.20   head
602         1490    1.00   head
14920       1561    0.20   head
14912       1594    0.20   head
14923       1548    0.20   head
14861       1564    1.00   head
14930       1567    0.20   head
1020        1550    1.00   head
14913       1589    0.20   head
14926       1561    0.20   head
4153        1545    0.20   head
1042        1538    1.00   head
676         1546    1.00   head
889         1463    0.20   head
3018        1515    1.00   head
1134        1544    1.00   head
294         1532    0.20   head
3020        1551    0.20   head
14857       1557    0.20   head
1353        1557    1.00   head
14855       1568    0.20   head
4155        1526    1.00   head
3045        1570    0.20   head
137         1559    0.20   head
14927       1564    0.20   head
14858       1572    0.20   head
445         1464    0.20   head
418         1568    0.20   head
15126       1584    0.20   head
3037        1547    1.00   head
4407        1558    0.05   head
3039        1564    0.05   head
3040        1551    0.05   head
3042        1536    0.05   head
14849       1554    0.20   head
7231        1585    0.20   head
7642        1585    0.20   head
974         1542    1.00   head
14848       1572    0.20   head
7711        1589    0.20   head
2981        1505    1.00   head
14865       1571    0.20   head
15123       1566    0.20   head
1312        1550    1.00   head
14860       1601    0.20   head
15124       1562    0.20   head
14851       1571    0.20   head
15118       1569    0.20   head
14859       1601    0.20   head
15127       1580    0.20   head
1094        1554    1.00   head
14862       1600    0.20   head
4072        1439    1.00   head
3041        1544    0.05   head
2982        1455    1.00   head
15117       1562    0.20   head
207         1570    0.20   head
14853       1596    0.20   head
291         1572    0.20   head
648         1543    1.00   head
14846       1585    0.20   head
14863       1553    0.20   head
3084        1519    1.00   head
23155       1560    0.20   head
402         1576    0.20   head
19787       1568    0.20   head
1420        1546    1.00   head
1482        1540    1.00   head
204         1499    0.05   head
19808       1549    0.20   head
1566        1544    1.00   head
21140       1586    0.20   head
19871       1569    0.20   head
2387        1540    0.05   head
2388        1553    1.00   head
3086        1533    0.20   head
1652        1548    0.20   head
3090        1550    1.00   head
603         1530    1.00   head
4069        1475    1.00   head
20496       1569    0.20   head
702         1518    0.20   head
3091        1549    0.20   head
4268        1564    0.20   head
236         1556    0.20   head
1477        1552    1.00   head
1739        1534    1.00   head
3092        1538    1.00   head
237         1568    0.20   head
4145        1519    0.20   head
1171        1536    1.00   head
1910        1538    1.00   head
3087        1533    1.00   head
2389        1551    1.00   head
928         1519    1.00   head
3088        1515    0.05   head
3085        1559    0.05   head
21088       1565    0.20   head
19327       1590    0.20   head
27060       1528    0.20   head
2384        1556    0.05   head
1925        1551    0.20   head
703         1555    0.05   head
86          1539    0.05   head
1309        1537    1.00   head
3083        1479    1.00   head
1698        1495    1.00   head
21116       1562    0.20   head
21294       1558    0.20   head
4099        1509    1.00   head
470         1561    0.20   head
1601        1555    1.00   head
21191       1568    0.20   head
369         1474    1.00   head
1163        1554    1.00   head
19712       1548    0.20   head
419         1540    0.20   head
3082        1496    1.00   head
23157       1580    0.20   head
28163       1590    0.20   head
1275        1550    0.20   head
2383        1549    0.05   head
2380        1553    0.05   head
19697       1522    0.20   head
21095       1558    0.20   head
1339        1548    1.00   head
18990       1560    0.20   head
2381        1549    1.00   head
1982        1526    1.00   head
20062       1579    0.20   head
23156       1583    0.20   head
2385        1551    0.20   head
350         1541    1.00   head
19326       1567    0.20   head
19341       1564    0.20   head
2382        1552    1.00   head
4098        1518    1.00   head
1707        1481    0.20   head
571         1459    1.00   head
23151       1554    0.20   head
1274        1552    1.00   head
19711       1585    0.20   head
138         1567    0.20   head
21603       1574    0.20   head
949         1557    0.20   head
20754       1566    0.20   head
3183        1527    0.20   head
1237        1526    0.20   head
1670        1565    1.00   head
1923        1542    1.00   head
1967        1555    1.00   head
27966       1553    0.20   head
28181       1568    0.20   head
919         1458    1.00   head
23152       1553    0.20   head
1735        1514    1.00   head
1397        1554    1.00   head
4144        1554    1.00   head
1065        1545    1.00   head
483         1568    0.20   head
18489       1575    0.20   head
22558       1577    0.20   head
2373        1532    0.05   head
2372        1547    0.05   head
19148       1562    0.20   head
19614       1561    0.20   head
28148       1572    0.20   head
28244       1597    0.20   head
1807        1547    1.00   head
2370        1551    1.00   head
20239       1555    0.20   head
1937        1556    1.00   head
2374        1549    1.00   head
203         1556    0.20   head
2371        1546    1.00   head
2377        1541    0.20   head
2356        1546    1.00   head
20118       1575    0.20   head
828         1547    0.20   head
1080        1549    1.00   head
838         1540    0.20   head
2357        1546    1.00   head
1727        1514    0.20   head
2378        1546    0.05   head
2379        1534    0.05   head
4143        1555    0.05   head
922         1543    1.00   head
23150       1547    0.20   head
880         1546    1.00   head
1313        1553    1.00   head
573         1551    1.00   head
23136       1599    1.00   head
776         1545    1.00   head
155         1531    0.20   head
4067        1492    1.00   head
1003        1542    1.00   head
23149       1561    0.20   head
23145       1565    0.20   head
18988       1594    0.20   head
21824       1572    0.20   head
21390       1554    0.20   head
4258        1552    0.20   head
19481       1608    0.20   head
27626       1590    0.20   head
20151       1598    0.20   head
23134       1593    0.20   head
1711        1551    1.00   head
18497       1551    0.20   head
23143       1561    0.20   head
22582       1573    0.20   head
27675       1576    0.20   head
23144       1572    0.20   head
334         1530    0.20   head
2367        1554    0.20   head
4           1550    0.05   head
4219        1550    0.05   head
3206        1558    0.20   head
23140       1567    0.20   head
586         1537    0.20   head
1196        1531    0.20   head
968         1543    1.00   head
905         1560    0.20   head
23148       1574    0.20   head
18741       1570    1.00   head
19782       1537    0.20   head
23142       1568    0.20   head
1483        1546    1.00   head
4181        1542    0.20   head
343         1551    1.00   head
1303        1563    0.20   head
1704        1539    1.00   head
23138       1587    0.20   head
20108       1600    0.20   head
2368        1538    0.05   head
2369        1520    0.05   head
18528       1599    0.20   head
81          1522    0.20   head
568         1547    1.00   head
1002        1550    1.00   head
4097        1468    1.00   head
23139       1594    0.20   head
21109       1603    0.20   head
1437        1468    1.00   head
20936       1605    0.20   head
920         1482    1.00   head
453         1504    0.20   head
1516        1466    1.00   head
19746       1595    0.20   head
4184        1508    0.20   head
20749       1544    0.20   head
21634       1585    0.20   head
22685       1584    0.20   head
20543       1548    0.20   head
130         1525    0.20   head
1413        1514    1.00   head
28092       1546    0.20   head
22654       1592    0.20   head
21202       1592    0.20   head
2358        1544    1.00   head