pcf
* control data
restart estimation
5  228  3  0  5
2  2  single  point  1  0  0
1.000000e+001  2.000000e+000  3.000000e-001  1.000000e-002  7
1.000000e+001  1.000000e+001  1.000000e-003
1.000000e-001 noaui
0  1.000000e-002  3  3  1.000000e-002  3
0  0  0
* parameter groups
Kx     relative   1.000000e-002  0.000000e+000  always_3  2.000000e+000  parabolic
Kz     relative   1.000000e-002  0.000000e+000  always_3  2.000000e+000  parabolic
Rech   relative   1.000000e-002  0.000000e+000  always_3   2.000000e+000  parabolic
* parameter data
kx5  log  factor    20.62199      1.000000e-000  1.000000e+002    kx   1.0   0.0 1
kz5  fixed  factor   1.6944378E-02  1.000000e-004  1.000000e+000    kz   1.0   0.0 1
kx10  fixed  factor    10.00000      1.000000e-004  1.000000e+003    kx   1.0   0.0 1
kz10  fixed  factor   5.0000000E-03  1.000000e-004  1.000000e+003    kz   1.0   0.0 1
r2  fixed  factor    8.169541      1.000000e-004  1.000000e+003    rech   0.00022831   0.0 1
* observation groups
Head10
Head50
Flux30
Flux40
Flux50
* observation data
PI-U1    761.5500    0.500000  Head10
o2    840.0000    0.100000  Head50
o3    928.0000    0.100000  Head50
o4    920.0000    0.100000  Head50
o5    944.0000    0.100000  Head50
o6    803.0000    0.100000  Head50
o7    920.0000    0.100000  Head50
o8    889.0000    0.100000  Head50
o9    885.0000    0.100000  Head50
o10    860.0000    0.100000  Head50
o11    761.0000    0.100000  Head50
o12    664.0000    0.100000  Head50
o13    770.0000    0.100000  Head50
o14    710.0000    0.100000  Head50
o15    710.0000    0.100000  Head50
o16    898.0000    0.100000  Head50
o17    887.0000    0.100000  Head50
o18    920.0000    0.100000  Head50
o19    958.0000    0.100000  Head50
o20    1080.0000    0.100000  Head50
o21    906.0000    0.100000  Head50
o22    810.0000    0.100000  Head50
o23    750.0000    0.100000  Head50
o24    805.0000    0.100000  Head50
o25    905.0000    0.100000  Head50
o26    865.0000    0.100000  Head50
o27    716.0000    0.100000  Head50
o28    750.0000    0.100000  Head50
o29    780.0000    0.100000  Head50
o30    749.0000    0.100000  Head50
o31    746.0000    0.100000  Head50
o32    735.0000    0.100000  Head50
o33    907.0000    0.100000  Head50
o34    940.0000    0.100000  Head50
o35    896.0000    0.100000  Head50
o36    931.0000    0.100000  Head50
o37    936.0000    0.100000  Head50
o38    935.0000    0.100000  Head50
o39    900.0000    0.100000  Head50
o40    911.0000    0.100000  Head50
o41    897.0000    0.100000  Head50
o42    893.0000    0.100000  Head50
o43    916.0000    0.100000  Head50
o44    882.0000    0.100000  Head50
o45    902.0000    0.100000  Head50
o46    917.0000    0.100000  Head50
o47    840.0000    0.100000  Head50
o48    853.0000    0.100000  Head50
o49    852.0000    0.100000  Head50
o50    906.0000    0.100000  Head50
o51    907.0000    0.100000  Head50
o52    880.0000    0.100000  Head50
o53    909.0000    0.100000  Head50
o54    795.0000    0.100000  Head50
o55    834.0000    0.100000  Head50
o56    864.0000    0.100000  Head50
o57    828.0000    0.100000  Head50
o58    816.0000    0.100000  Head50
o59    797.0000    0.100000  Head50
o60    834.0000    0.100000  Head50
o61    830.0000    0.100000  Head50
o62    855.0000    0.100000  Head50
o63    902.0000    0.100000  Head50
o64    900.0000    0.100000  Head50
o65    792.0000    0.100000  Head50
o66    863.0000    0.100000  Head50
o67    814.0000    0.100000  Head50
o68    814.0000    0.100000  Head50
o69    890.0000    0.100000  Head50
o70    900.0000    0.100000  Head50
o71    858.0000    0.100000  Head50
o72    840.0000    0.100000  Head50
o73    665.0000    0.100000  Head50
o74    698.0000    0.100000  Head50
o75    797.0000    0.100000  Head50
o76    807.0000    0.100000  Head50
o77    754.0000    0.100000  Head50
o78    731.0000    0.100000  Head50
o79    730.0000    0.100000  Head50
o80    750.0000    0.100000  Head50
o81    671.0000    0.100000  Head50
o82    710.0000    0.100000  Head50
o83    683.0000    0.100000  Head50
o84    678.0000    0.100000  Head50
o85    676.0000    0.100000  Head50
o86    702.0000    0.100000  Head50
o87    689.0000    0.100000  Head50
o88    671.0000    0.100000  Head50
o89    916.0000    0.100000  Head50
o90    915.0000    0.100000  Head50
o91    945.0000    0.100000  Head50
o92    914.0000    0.100000  Head50
o93    905.0000    0.100000  Head50
o94    872.0000    0.100000  Head50
o95    909.0000    0.100000  Head50
o96    915.0000    0.100000  Head50
o97    951.0000    0.100000  Head50
o98    955.0000    0.100000  Head50
o99    941.0000    0.100000  Head50
o100    935.0000    0.100000  Head50
o101    916.0000    0.100000  Head50
o102    915.0000    0.100000  Head50
o103    925.0000    0.100000  Head50
o104    1000.0000    0.100000  Head50
o105    950.0000    0.100000  Head50
o106    948.0000    0.100000  Head50
o107    950.0000    0.100000  Head50
o108    960.0000    0.100000  Head50
o109    938.0000    0.100000  Head50
o110    932.0000    0.100000  Head50
o111    935.0000    0.100000  Head50
o112    945.0000    0.100000  Head50
o113    934.0000    0.100000  Head50
o114    931.0000    0.100000  Head50
o115    920.0000    0.100000  Head50
o116    924.0000    0.100000  Head50
o117    917.0000    0.100000  Head50
o118    939.0000    0.100000  Head50
o119    938.0000    0.100000  Head50
o120    940.0000    0.100000  Head50
o121    945.0000    0.100000  Head50
o122    935.0000    0.100000  Head50
o123    871.0000    0.100000  Head50
o124    884.0000    0.100000  Head50
o125    866.0000    0.100000  Head50
o126    815.0000    0.100000  Head50
o127    860.0000    0.100000  Head50
o128    848.0000    0.100000  Head50
o129    838.0000    0.100000  Head50
o130    823.0000    0.100000  Head50
o131    810.0000    0.100000  Head50
o132    748.0000    0.100000  Head50
o133    761.0000    0.100000  Head50
o134    730.0000    0.100000  Head50
o135    780.0000    0.100000  Head50
o136    830.0000    0.100000  Head50
o137    841.0000    0.100000  Head50
o138    900.0000    0.100000  Head50
o139    865.0000    0.100000  Head50
o140    870.0000    0.100000  Head50
o141    840.0000    0.100000  Head50
o142    830.0000    0.100000  Head50
o143    833.0000    0.100000  Head50
o144    779.0000    0.100000  Head50
o145    736.0000    0.100000  Head50
o146    740.0000    0.100000  Head50
o147    760.0000    0.100000  Head50
o148    770.0000    0.100000  Head50
o149    880.0000    0.100000  Head50
o150    900.0000    0.100000  Head50
o151    835.0000    0.100000  Head50
o152    852.0000    0.100000  Head50
o153    816.0000    0.100000  Head50
o154    760.0000    0.100000  Head50
o155    765.0000    0.100000  Head50
o156    816.0000    0.100000  Head50
o157    792.0000    0.100000  Head50
o158    778.0000    0.100000  Head50
o159    820.0000    0.100000  Head50
o160    854.0000    0.100000  Head50
o161    967.0000    0.100000  Head50
o162    918.0000    0.100000  Head50
o163    733.0000    0.100000  Head50
o164    818.0000    0.100000  Head50
o165    670.0000    0.100000  Head50
o166    710.0000    0.100000  Head50
o167    710.0000    0.100000  Head50
o168    769.0000    0.100000  Head50
o169    730.0000    0.100000  Head50
o170    930.0000    0.100000  Head50
o171    895.0000    0.100000  Head50
o172    910.0000    0.100000  Head50
o173    913.0000    0.100000  Head50
o174    915.0000    0.100000  Head50
o175    838.0000    0.100000  Head50
o176    903.0000    0.100000  Head50
o177    890.0000    0.100000  Head50
o178    895.0000    0.100000  Head50
o179    807.0000    0.100000  Head50
o180    788.0000    0.100000  Head50
o181    750.0000    0.100000  Head50
o182    768.0000    0.100000  Head50
o183    916.0000    0.100000  Head50
o184    885.0000    0.100000  Head50
o185    780.0000    0.100000  Head50
o186    780.0000    0.100000  Head50
o187    895.0000    0.100000  Head50
o188    939.0000    0.100000  Head50
o189    916.0000    0.100000  Head50
o190    925.0000    0.100000  Head50
o191    946.0000    0.100000  Head50
o192    930.0000    0.100000  Head50
o193    899.0000    0.100000  Head50
o194    885.0000    0.100000  Head50
o195    905.0000    0.100000  Head50
o196    915.0000    0.100000  Head50
o197    935.0000    0.100000  Head50
o198    936.0000    0.100000  Head50
o199    963.0000    0.100000  Head50
o200    875.0000    0.100000  Head50
o201    865.0000    0.100000  Head50
o202    911.0000    0.100000  Head50
o203    879.0000    0.100000  Head50
o204    869.0000    0.100000  Head50
o205    855.0000    0.100000  Head50
o206    895.0000    0.100000  Head50
o207    847.0000    0.100000  Head50
o208    753.0000    0.100000  Head50
o209    805.0000    0.100000  Head50
o210    775.0000    0.100000  Head50
o211    830.0000    0.100000  Head50
o212    823.0000    0.100000  Head50
o213    842.0000    0.100000  Head50
o214    830.0000    0.100000  Head50
o215    811.0000    0.100000  Head50
o216    855.0000    0.100000  Head50
o217    858.0000    0.100000  Head50
o218    841.0000    0.100000  Head50
o219    680.0000    0.100000  Head50
KINNI-J13     5624640.0000    4.000000e-005  Flux30
J12           6125760.0000    1.500000e-005  Flux40
R3             382752.0000    1.500000e-005  Flux40
R5             699840.0000    1.500000e-005  Flux40
R6             845856.0000    1.500000e-005  Flux40
R8             798336.0000    1.500000e-005  Flux40
R7            7136640.0000    4.000000e-005  Flux30
J10           7248960.0000    0.500000e-005  Flux50
KINNI-GAGE    9223200.0000    4.000000e-005  Flux30
* model command line
PI8.bat
* model input/output
PI8-lpf.tpl        PI8.lpf
PI8-recharge.tpl   PI8.rch
PI8-targpest.ins   targpest.out
PI8-flux.ins       PI8_gages.out
