pcf
* control data
restart regularisation
   1518   9001      6    2670     12
    6     2 single point   1   0   0
  5.0  -3.0   0.3  0.03    10
  3.0   3.0 0.001  0
  0.1
    0  0.01     3     3  0.01     3
    1     1     1
* singular value decomposition
         1
      1400     5E-07
         0
* parameter groups
HK     relative 0.01  0.0  switch  2.0 parabolic
ANIZ   relative 0.01  0.0  switch  2.0 parabolic
HTR    relative 0.01  0.0  switch  2.0 parabolic
HTS    relative 0.01  0.0  switch  2.0 parabolic
ALFA   relative 0.01  0.0  switch  2.0 parabolic
THET   relative 0.01  0.0  switch  2.0 parabolic
* parameter data
hk_001          fixed  factor    999999.0      0.0000000e+00       99999999     hk      1.0000      0.0000   1
hk_002          fixed  factor    999999.0      0.0000000e+00       99999999     hk      1.0000      0.0000   1
hk_003          fixed  factor    999999.0      0.0000000e+00       99999999     hk      1.0000      0.0000   1
hk_004          fixed  factor    999999.0      0.0000000e+00       99999999     hk      1.0000      0.0000   1
hk_005          fixed  factor    999999.0      0.0000000e+00       99999999     hk      1.0000      0.0000   1
hk_006          fixed  factor    999999.0      0.0000000e+00       99999999     hk      1.0000      0.0000   1
hk_007          fixed  factor    999999.0      0.0000000e+00       99999999     hk      1.0000      0.0000   1
hk_008          fixed  factor    999999.0      0.0000000e+00       99999999     hk      1.0000      0.0000   1
hk_009          fixed  factor    999999.0      0.0000000e+00       99999999     hk      1.0000      0.0000   1
hk_010          fixed  factor    999999.0      0.0000000e+00       99999999     hk      1.0000      0.0000   1
hk_011          fixed  factor    999999.0      0.0000000e+00       99999999     hk      1.0000      0.0000   1
hk_012          fixed  factor    999999.0      0.0000000e+00       99999999     hk      1.0000      0.0000   1
hk_013          fixed  factor    999999.0      0.0000000e+00       99999999     hk      1.0000      0.0000   1
hk_014          fixed  factor    999999.0      0.0000000e+00       99999999     hk      1.0000      0.0000   1
hk_015          fixed  factor    999999.0      0.0000000e+00       99999999     hk      1.0000      0.0000   1
hk_016          fixed  factor    999999.0      0.0000000e+00       99999999     hk      1.0000      0.0000   1
hk_017          fixed  factor    999999.0      0.0000000e+00       99999999     hk      1.0000      0.0000   1
hk_018          fixed  factor    999999.0      0.0000000e+00       99999999     hk      1.0000      0.0000   1
hk_019          fixed  factor    999999.0      0.0000000e+00       99999999     hk      1.0000      0.0000   1
hk_020          fixed  factor    999999.0      0.0000000e+00       99999999     hk      1.0000      0.0000   1
hk_021          fixed  factor    999999.0      0.0000000e+00       99999999     hk      1.0000      0.0000   1
hk_022          fixed  factor    999999.0      0.0000000e+00       99999999     hk      1.0000      0.0000   1
hk_023            log  factor   2.3378904E-05  1.0000000e-05  1.0000000e+01     hk      1.0000      0.0000   1
hk_024            log  factor   1.1672177E-05  1.0000000e-05  1.0000000e+01     hk      1.0000      0.0000   1
hk_025          fixed  factor    999999.0      0.0000000e+00       99999999     hk      1.0000      0.0000   1
hk_026          fixed  factor    999999.0      0.0000000e+00       99999999     hk      1.0000      0.0000   1
hk_027          fixed  factor    999999.0      0.0000000e+00       99999999     hk      1.0000      0.0000   1
hk_028          fixed  factor    999999.0      0.0000000e+00       99999999     hk      1.0000      0.0000   1
hk_029          fixed  factor    999999.0      0.0000000e+00       99999999     hk      1.0000      0.0000   1
hk_030          fixed  factor    999999.0      0.0000000e+00       99999999     hk      1.0000      0.0000   1
hk_031          fixed  factor    999999.0      0.0000000e+00       99999999     hk      1.0000      0.0000   1
hk_032          fixed  factor    999999.0      0.0000000e+00       99999999     hk      1.0000      0.0000   1
hk_033            log  factor   8.4905308E-02  1.0000000e-05  1.0000000e+01     hk      1.0000      0.0000   1
hk_034            log  factor   1.4289002E-02  1.0000000e-05  1.0000000e+01     hk      1.0000      0.0000   1
hk_035            log  factor   2.5738555E-05  1.0000000e-05  1.0000000e+01     hk      1.0000      0.0000   1
hk_036          fixed  factor    999999.0      0.0000000e+00       99999999     hk      1.0000      0.0000   1
hk_037          fixed  factor    999999.0      0.0000000e+00       99999999     hk      1.0000      0.0000   1
hk_038          fixed  factor    999999.0      0.0000000e+00       99999999     hk      1.0000      0.0000   1
hk_039          fixed  factor    999999.0      0.0000000e+00       99999999     hk      1.0000      0.0000   1
hk_040          fixed  factor    999999.0      0.0000000e+00       99999999     hk      1.0000      0.0000   1
hk_041          fixed  factor    999999.0      0.0000000e+00       99999999     hk      1.0000      0.0000   1
hk_042          fixed  factor    999999.0      0.0000000e+00       99999999     hk      1.0000      0.0000   1
hk_043          fixed  factor    999999.0      0.0000000e+00       99999999     hk      1.0000      0.0000   1
hk_044            log  factor   7.7064277E-02  1.0000000e-05  1.0000000e+01     hk      1.0000      0.0000   1
hk_045            log  factor   3.2238417E-02  1.0000000e-05  1.0000000e+01     hk      1.0000      0.0000   1
hk_046            log  factor   4.7340318E-05  1.0000000e-05  1.0000000e+01     hk      1.0000      0.0000   1
hk_047            log  factor   1.3861271E-05  1.0000000e-05  1.0000000e+01     hk      1.0000      0.0000   1
hk_048          fixed  factor    999999.0      0.0000000e+00       99999999     hk      1.0000      0.0000   1
hk_049          fixed  factor    999999.0      0.0000000e+00       99999999     hk      1.0000      0.0000   1
hk_050          fixed  factor    999999.0      0.0000000e+00       99999999     hk      1.0000      0.0000   1
hk_051          fixed  factor    999999.0      0.0000000e+00       99999999     hk      1.0000      0.0000   1
hk_052          fixed  factor    999999.0      0.0000000e+00       99999999     hk      1.0000      0.0000   1
hk_053          fixed  factor    999999.0      0.0000000e+00       99999999     hk      1.0000      0.0000   1
hk_054            log  factor   2.8251446E-05  1.0000000e-05  1.0000000e+01     hk      1.0000      0.0000   1
hk_055            log  factor   3.3222642E-02  1.0000000e-05  1.0000000e+01     hk      1.0000      0.0000   1
hk_056            log  factor   6.1009905E-02  1.0000000e-05  1.0000000e+01     hk      1.0000      0.0000   1
hk_057            log  factor   1.9232946E-02  1.0000000e-05  1.0000000e+01     hk      1.0000      0.0000   1
hk_058            log  factor   2.4474068E-05  1.0000000e-05  1.0000000e+01     hk      1.0000      0.0000   1
hk_059            log  factor   1.1756226E-05  1.0000000e-05  1.0000000e+01     hk      1.0000      0.0000   1
hk_060          fixed  factor    999999.0      0.0000000e+00       99999999     hk      1.0000      0.0000   1
hk_061          fixed  factor    999999.0      0.0000000e+00       99999999     hk      1.0000      0.0000   1
hk_062          fixed  factor    999999.0      0.0000000e+00       99999999     hk      1.0000      0.0000   1
hk_063          fixed  factor    999999.0      0.0000000e+00       99999999     hk      1.0000      0.0000   1
hk_064          fixed  factor    999999.0      0.0000000e+00       99999999     hk      1.0000      0.0000   1
hk_065            log  factor   3.0395713E-05  1.0000000e-05  1.0000000e+01     hk      1.0000      0.0000   1
hk_066            log  factor   3.0873410E-02  1.0000000e-05  1.0000000e+01     hk      1.0000      0.0000   1
hk_067            log  factor   7.5499273E-02  1.0000000e-05  1.0000000e+01     hk      1.0000      0.0000   1
hk_068            log  factor   3.6420372E-02  1.0000000e-05  1.0000000e+01     hk      1.0000      0.0000   1
hk_069            log  factor   4.8152538E-05  1.0000000e-05  1.0000000e+01     hk      1.0000      0.0000   1
hk_070            log  factor   1.4077433E-05  1.0000000e-05  1.0000000e+01     hk      1.0000      0.0000   1
hk_071          fixed  factor    999999.0      0.0000000e+00       99999999     hk      1.0000      0.0000   1
hk_072          fixed  factor    999999.0      0.0000000e+00       99999999     hk      1.0000      0.0000   1
hk_073          fixed  factor    999999.0      0.0000000e+00       99999999     hk      1.0000      0.0000   1
hk_074          fixed  factor    999999.0      0.0000000e+00       99999999     hk      1.0000      0.0000   1
hk_075          fixed  factor    999999.0      0.0000000e+00       99999999     hk      1.0000      0.0000   1
hk_076            log  factor   6.3694730E-05  1.0000000e-05  1.0000000e+01     hk      1.0000      0.0000   1
hk_077            log  factor   3.7629858E-02  1.0000000e-05  1.0000000e+01     hk      1.0000      0.0000   1
hk_078            log  factor   7.8381768E-02  1.0000000e-05  1.0000000e+01     hk      1.0000      0.0000   1
hk_079            log  factor   6.6619358E-02  1.0000000e-05  1.0000000e+01     hk      1.0000      0.0000   1
hk_080            log  factor   1.9937255E-02  1.0000000e-05  1.0000000e+01     hk      1.0000      0.0000   1
hk_081            log  factor   4.7772008E-05  1.0000000e-05  1.0000000e+01     hk      1.0000      0.0000   1
hk_082          fixed  factor    999999.0      0.0000000e+00       99999999     hk      1.0000      0.0000   1
hk_083          fixed  factor    999999.0      0.0000000e+00       99999999     hk      1.0000      0.0000   1
hk_084          fixed  factor    999999.0      0.0000000e+00       99999999     hk      1.0000      0.0000   1
hk_085          fixed  factor    999999.0      0.0000000e+00       99999999     hk      1.0000      0.0000   1
hk_086          fixed  factor    999999.0      0.0000000e+00       99999999     hk      1.0000      0.0000   1
hk_087            log  factor   3.6498039E-02  1.0000000e-05  1.0000000e+01     hk      1.0000      0.0000   1
hk_088            log  factor   7.3059462E-02  1.0000000e-05  1.0000000e+01     hk      1.0000      0.0000   1
hk_089            log  factor   8.2301359E-02  1.0000000e-05  1.0000000e+01     hk      1.0000      0.0000   1
hk_090            log  factor   7.3927046E-02  1.0000000e-05  1.0000000e+01     hk      1.0000      0.0000   1
hk_091            log  factor   6.4925031E-02  1.0000000e-05  1.0000000e+01     hk      1.0000      0.0000   1
hk_092            log  factor   1.8772148E-02  1.0000000e-05  1.0000000e+01     hk      1.0000      0.0000   1
hk_093            log  factor   2.5296280E-05  1.0000000e-05  1.0000000e+01     hk      1.0000      0.0000   1
hk_094          fixed  factor    999999.0      0.0000000e+00       99999999     hk      1.0000      0.0000   1
hk_095          fixed  factor    999999.0      0.0000000e+00       99999999     hk      1.0000      0.0000   1
hk_096          fixed  factor    999999.0      0.0000000e+00       99999999     hk      1.0000      0.0000   1
hk_097            log  factor   6.8786583E-04  1.0000000e-05  1.0000000e+01     hk      1.0000      0.0000   1
hk_098            log  factor   5.2702081E-02  1.0000000e-05  1.0000000e+01     hk      1.0000      0.0000   1
hk_099            log  factor   8.3070409E-02  1.0000000e-05  1.0000000e+01     hk      1.0000      0.0000   1
hk_100            log  factor   7.8335809E-02  1.0000000e-05  1.0000000e+01     hk      1.0000      0.0000   1
hk_101            log  factor   8.3678083E-02  1.0000000e-05  1.0000000e+01     hk      1.0000      0.0000   1
hk_102            log  factor   8.0903267E-02  1.0000000e-05  1.0000000e+01     hk      1.0000      0.0000   1
hk_103            log  factor   3.3785215E-02  1.0000000e-05  1.0000000e+01     hk      1.0000      0.0000   1
hk_104            log  factor   5.0428422E-05  1.0000000e-05  1.0000000e+01     hk      1.0000      0.0000   1
hk_105            log  factor   4.5998505E-05  1.0000000e-05  1.0000000e+01     hk      1.0000      0.0000   1
hk_106            log  factor   8.0555575E-02  1.0000000e-05  1.0000000e+01     hk      1.0000      0.0000   1
hk_107            log  factor   6.4581773E-03  1.0000000e-05  1.0000000e+01     hk      1.0000      0.0000   1
hk_108            log  factor   4.7187431E-02  1.0000000e-05  1.0000000e+01     hk      1.0000      0.0000   1
hk_109            log  factor   6.0433246E-02  1.0000000e-05  1.0000000e+01     hk      1.0000      0.0000   1
hk_110            log  factor   8.2938775E-02  1.0000000e-05  1.0000000e+01     hk      1.0000      0.0000   1
hk_111            log  factor   7.3454240E-02  1.0000000e-05  1.0000000e+01     hk      1.0000      0.0000   1
hk_112            log  factor   8.4175821E-02  1.0000000e-05  1.0000000e+01     hk      1.0000      0.0000   1
hk_113            log  factor   8.9526484E-02  1.0000000e-05  1.0000000e+01     hk      1.0000      0.0000   1
hk_114            log  factor   5.9424448E-02  1.0000000e-05  1.0000000e+01     hk      1.0000      0.0000   1
hk_115            log  factor   2.5310715E-02  1.0000000e-05  1.0000000e+01     hk      1.0000      0.0000   1
hk_116            log  factor   3.9847979E-02  1.0000000e-05  1.0000000e+01     hk      1.0000      0.0000   1
hk_117            log  factor    3.556239      1.0000000e-05  1.0000000e+01     hk      1.0000      0.0000   1
hk_118            log  factor   0.2584105      1.0000000e-05  1.0000000e+01     hk      1.0000      0.0000   1
hk_119            log  factor   9.7399981E-02  1.0000000e-05  1.0000000e+01     hk      1.0000      0.0000   1
hk_120            log  factor   7.2703190E-02  1.0000000e-05  1.0000000e+01     hk      1.0000      0.0000   1
hk_121            log  factor   7.6575663E-02  1.0000000e-05  1.0000000e+01     hk      1.0000      0.0000   1
hk_122            log  factor   6.7333862E-02  1.0000000e-05  1.0000000e+01     hk      1.0000      0.0000   1
hk_123            log  factor   8.4742479E-02  1.0000000e-05  1.0000000e+01     hk      1.0000      0.0000   1
hk_124            log  factor   9.8615081E-02  1.0000000e-05  1.0000000e+01     hk      1.0000      0.0000   1
hk_125            log  factor   5.6795722E-02  1.0000000e-05  1.0000000e+01     hk      1.0000      0.0000   1
hk_126            log  factor   3.3051559E-02  1.0000000e-05  1.0000000e+01     hk      1.0000      0.0000   1
hk_127            log  factor   6.7764157E-02  1.0000000e-05  1.0000000e+01     hk      1.0000      0.0000   1
hk_128            log  factor    1.832263      1.0000000e-05  1.0000000e+01     hk      1.0000      0.0000   1
hk_129            log  factor   0.2534718      1.0000000e-05  1.0000000e+01     hk      1.0000      0.0000   1
hk_130            log  factor   0.1138938      1.0000000e-05  1.0000000e+01     hk      1.0000      0.0000   1
hk_131            log  factor   8.4159425E-02  1.0000000e-05  1.0000000e+01     hk      1.0000      0.0000   1
hk_132            log  factor   8.3993071E-02  1.0000000e-05  1.0000000e+01     hk      1.0000      0.0000   1
hk_133            log  factor   6.6288026E-02  1.0000000e-05  1.0000000e+01     hk      1.0000      0.0000   1
hk_134            log  factor   8.7478919E-02  1.0000000e-05  1.0000000e+01     hk      1.0000      0.0000   1
hk_135            log  factor   0.1075847      1.0000000e-05  1.0000000e+01     hk      1.0000      0.0000   1
hk_136            log  factor   4.7248891E-02  1.0000000e-05  1.0000000e+01     hk      1.0000      0.0000   1
hk_137            log  factor   3.0780259E-02  1.0000000e-05  1.0000000e+01     hk      1.0000      0.0000   1
hk_138            log  factor   0.1087211      1.0000000e-05  1.0000000e+01     hk      1.0000      0.0000   1
hk_139            log  factor   0.6478277      1.0000000e-05  1.0000000e+01     hk      1.0000      0.0000   1
hk_140            log  factor   0.2385777      1.0000000e-05  1.0000000e+01     hk      1.0000      0.0000   1
hk_141            log  factor   0.1194140      1.0000000e-05  1.0000000e+01     hk      1.0000      0.0000   1
hk_142            log  factor   0.1042754      1.0000000e-05  1.0000000e+01     hk      1.0000      0.0000   1
hk_143            log  factor   9.2739495E-02  1.0000000e-05  1.0000000e+01     hk      1.0000      0.0000   1
hk_144            log  factor   6.6924442E-02  1.0000000e-05  1.0000000e+01     hk      1.0000      0.0000   1
hk_145            log  factor   8.4264020E-02  1.0000000e-05  1.0000000e+01     hk      1.0000      0.0000   1
hk_146            log  factor   0.1118288      1.0000000e-05  1.0000000e+01     hk      1.0000      0.0000   1
hk_147            log  factor   7.1201152E-02  1.0000000e-05  1.0000000e+01     hk      1.0000      0.0000   1
hk_148            log  factor   5.6881807E-02  1.0000000e-05  1.0000000e+01     hk      1.0000      0.0000   1
hk_149            log  factor   0.2617201      1.0000000e-05  1.0000000e+01     hk      1.0000      0.0000   1
hk_150            log  factor   0.1583583      1.0000000e-05  1.0000000e+01     hk      1.0000      0.0000   1
hk_151            log  factor   0.1836059      1.0000000e-05  1.0000000e+01     hk      1.0000      0.0000   1
hk_152            log  factor   0.1261153      1.0000000e-05  1.0000000e+01     hk      1.0000      0.0000   1
hk_153            log  factor   9.1544154E-02  1.0000000e-05  1.0000000e+01     hk      1.0000      0.0000   1
hk_154            log  factor   9.0892481E-02  1.0000000e-05  1.0000000e+01     hk      1.0000      0.0000   1
hk_155            log  factor   6.6260720E-02  1.0000000e-05  1.0000000e+01     hk      1.0000      0.0000   1
hk_156            log  factor   8.0595572E-02  1.0000000e-05  1.0000000e+01     hk      1.0000      0.0000   1
hk_157            log  factor   0.1128916      1.0000000e-05  1.0000000e+01     hk      1.0000      0.0000   1
hk_158            log  factor   0.1593285      1.0000000e-05  1.0000000e+01     hk      1.0000      0.0000   1
hk_159            log  factor   0.1658434      1.0000000e-05  1.0000000e+01     hk      1.0000      0.0000   1
hk_160            log  factor   0.3303281      1.0000000e-05  1.0000000e+01     hk      1.0000      0.0000   1
hk_161            log  factor   0.1077863      1.0000000e-05  1.0000000e+01     hk      1.0000      0.0000   1
hk_162            log  factor   0.1206084      1.0000000e-05  1.0000000e+01     hk      1.0000      0.0000   1
hk_163            log  factor   0.1021580      1.0000000e-05  1.0000000e+01     hk      1.0000      0.0000   1
hk_164            log  factor   8.7627058E-02  1.0000000e-05  1.0000000e+01     hk      1.0000      0.0000   1
hk_165            log  factor   8.5008992E-02  1.0000000e-05  1.0000000e+01     hk      1.0000      0.0000   1
hk_166            log  factor   7.1366000E-02  1.0000000e-05  1.0000000e+01     hk      1.0000      0.0000   1
hk_167            log  factor   8.1038560E-02  1.0000000e-05  1.0000000e+01     hk      1.0000      0.0000   1
hk_168            log  factor   8.9326270E-02  1.0000000e-05  1.0000000e+01     hk      1.0000      0.0000   1
hk_169            log  factor   9.7991192E-02  1.0000000e-05  1.0000000e+01     hk      1.0000      0.0000   1
hk_170            log  factor   0.1070278      1.0000000e-05  1.0000000e+01     hk      1.0000      0.0000   1
hk_171            log  factor   0.1201699      1.0000000e-05  1.0000000e+01     hk      1.0000      0.0000   1
hk_172            log  factor   9.0654415E-02  1.0000000e-05  1.0000000e+01     hk      1.0000      0.0000   1
hk_173            log  factor   9.3731553E-02  1.0000000e-05  1.0000000e+01     hk      1.0000      0.0000   1
hk_174            log  factor   7.2605203E-02  1.0000000e-05  1.0000000e+01     hk      1.0000      0.0000   1
hk_175            log  factor   8.7005864E-02  1.0000000e-05  1.0000000e+01     hk      1.0000      0.0000   1
hk_176            log  factor   8.7535907E-02  1.0000000e-05  1.0000000e+01     hk      1.0000      0.0000   1
hk_177            log  factor   8.0940079E-02  1.0000000e-05  1.0000000e+01     hk      1.0000      0.0000   1
hk_178            log  factor   8.2614690E-02  1.0000000e-05  1.0000000e+01     hk      1.0000      0.0000   1
hk_179            log  factor   8.5818831E-02  1.0000000e-05  1.0000000e+01     hk      1.0000      0.0000   1
hk_180            log  factor   9.3225428E-02  1.0000000e-05  1.0000000e+01     hk      1.0000      0.0000   1
hk_181            log  factor   9.0391906E-02  1.0000000e-05  1.0000000e+01     hk      1.0000      0.0000   1
hk_182            log  factor   9.0073132E-02  1.0000000e-05  1.0000000e+01     hk      1.0000      0.0000   1
hk_183            log  factor   8.0176963E-02  1.0000000e-05  1.0000000e+01     hk      1.0000      0.0000   1
hk_184            log  factor   8.3877687E-02  1.0000000e-05  1.0000000e+01     hk      1.0000      0.0000   1
hk_185            log  factor   8.2636389E-02  1.0000000e-05  1.0000000e+01     hk      1.0000      0.0000   1
hk_186            log  factor   8.9871776E-02  1.0000000e-05  1.0000000e+01     hk      1.0000      0.0000   1
hk_187            log  factor   9.2211564E-02  1.0000000e-05  1.0000000e+01     hk      1.0000      0.0000   1
hk_188            log  factor   8.1259029E-02  1.0000000e-05  1.0000000e+01     hk      1.0000      0.0000   1
hk_189            log  factor   8.5726314E-02  1.0000000e-05  1.0000000e+01     hk      1.0000      0.0000   1
hk_190            log  factor   8.4322811E-02  1.0000000e-05  1.0000000e+01     hk      1.0000      0.0000   1
hk_191            log  factor   8.9729372E-02  1.0000000e-05  1.0000000e+01     hk      1.0000      0.0000   1
hk_192            log  factor   8.5679142E-02  1.0000000e-05  1.0000000e+01     hk      1.0000      0.0000   1
hk_193            log  factor   9.2427062E-02  1.0000000e-05  1.0000000e+01     hk      1.0000      0.0000   1
hk_194            log  factor   9.1267478E-02  1.0000000e-05  1.0000000e+01     hk      1.0000      0.0000   1
hk_195            log  factor   8.3958063E-02  1.0000000e-05  1.0000000e+01     hk      1.0000      0.0000   1
hk_196            log  factor   8.5049501E-02  1.0000000e-05  1.0000000e+01     hk      1.0000      0.0000   1
hk_197            log  factor   8.4449493E-02  1.0000000e-05  1.0000000e+01     hk      1.0000      0.0000   1
hk_198            log  factor   8.4365242E-02  1.0000000e-05  1.0000000e+01     hk      1.0000      0.0000   1
hk_199            log  factor   8.7853219E-02  1.0000000e-05  1.0000000e+01     hk      1.0000      0.0000   1
hk_200            log  factor   8.4704763E-02  1.0000000e-05  1.0000000e+01     hk      1.0000      0.0000   1
hk_201            log  factor   8.1314649E-02  1.0000000e-05  1.0000000e+01     hk      1.0000      0.0000   1
hk_202            log  factor   8.8239718E-02  1.0000000e-05  1.0000000e+01     hk      1.0000      0.0000   1
hk_203            log  factor   8.6513005E-02  1.0000000e-05  1.0000000e+01     hk      1.0000      0.0000   1
hk_204            log  factor   8.8730755E-02  1.0000000e-05  1.0000000e+01     hk      1.0000      0.0000   1
hk_205            log  factor   8.3972491E-02  1.0000000e-05  1.0000000e+01     hk      1.0000      0.0000   1
hk_206            log  factor   8.4093059E-02  1.0000000e-05  1.0000000e+01     hk      1.0000      0.0000   1
hk_207            log  factor   8.6136230E-02  1.0000000e-05  1.0000000e+01     hk      1.0000      0.0000   1
hk_208            log  factor   8.7817458E-02  1.0000000e-05  1.0000000e+01     hk      1.0000      0.0000   1
hk_209            log  factor   8.7402267E-02  1.0000000e-05  1.0000000e+01     hk      1.0000      0.0000   1
hk_210            log  factor   8.9340050E-02  1.0000000e-05  1.0000000e+01     hk      1.0000      0.0000   1
hk_211            log  factor   8.5395940E-02  1.0000000e-05  1.0000000e+01     hk      1.0000      0.0000   1
hk_212            log  factor   8.5783315E-02  1.0000000e-05  1.0000000e+01     hk      1.0000      0.0000   1
hk_213            log  factor   8.4665370E-02  1.0000000e-05  1.0000000e+01     hk      1.0000      0.0000   1
hk_214            log  factor   8.2264608E-02  1.0000000e-05  1.0000000e+01     hk      1.0000      0.0000   1
hk_215            log  factor   8.2069949E-02  1.0000000e-05  1.0000000e+01     hk      1.0000      0.0000   1
hk_216            log  factor   8.7207961E-02  1.0000000e-05  1.0000000e+01     hk      1.0000      0.0000   1
hk_217            log  factor   8.4451320E-02  1.0000000e-05  1.0000000e+01     hk      1.0000      0.0000   1
hk_218            log  factor   8.4964916E-02  1.0000000e-05  1.0000000e+01     hk      1.0000      0.0000   1
hk_219            log  factor   8.4688129E-02  1.0000000e-05  1.0000000e+01     hk      1.0000      0.0000   1
hk_220            log  factor   8.7226337E-02  1.0000000e-05  1.0000000e+01     hk      1.0000      0.0000   1
hk_221            log  factor   8.6339485E-02  1.0000000e-05  1.0000000e+01     hk      1.0000      0.0000   1
hk_222            log  factor   9.0051578E-02  1.0000000e-05  1.0000000e+01     hk      1.0000      0.0000   1
hk_223            log  factor   8.8720819E-02  1.0000000e-05  1.0000000e+01     hk      1.0000      0.0000   1
hk_224            log  factor   8.6454300E-02  1.0000000e-05  1.0000000e+01     hk      1.0000      0.0000   1
hk_225            log  factor   8.8422304E-02  1.0000000e-05  1.0000000e+01     hk      1.0000      0.0000   1
hk_226            log  factor   9.0887307E-02  1.0000000e-05  1.0000000e+01     hk      1.0000      0.0000   1
hk_227            log  factor   8.6602303E-02  1.0000000e-05  1.0000000e+01     hk      1.0000      0.0000   1
hk_228            log  factor   8.3609564E-02  1.0000000e-05  1.0000000e+01     hk      1.0000      0.0000   1
hk_229            log  factor   8.7242053E-02  1.0000000e-05  1.0000000e+01     hk      1.0000      0.0000   1
hk_230            log  factor   8.9113512E-02  1.0000000e-05  1.0000000e+01     hk      1.0000      0.0000   1
hk_231            log  factor   8.1608399E-02  1.0000000e-05  1.0000000e+01     hk      1.0000      0.0000   1
hk_232            log  factor   8.7734556E-02  1.0000000e-05  1.0000000e+01     hk      1.0000      0.0000   1
hk_233            log  factor   8.7262496E-02  1.0000000e-05  1.0000000e+01     hk      1.0000      0.0000   1
hk_234            log  factor   8.8621925E-02  1.0000000e-05  1.0000000e+01     hk      1.0000      0.0000   1
hk_235            log  factor   8.8491959E-02  1.0000000e-05  1.0000000e+01     hk      1.0000      0.0000   1
hk_236            log  factor   8.5533074E-02  1.0000000e-05  1.0000000e+01     hk      1.0000      0.0000   1
hk_237            log  factor   8.5464302E-02  1.0000000e-05  1.0000000e+01     hk      1.0000      0.0000   1
hk_238            log  factor   8.6994300E-02  1.0000000e-05  1.0000000e+01     hk      1.0000      0.0000   1
hk_239            log  factor   8.4727890E-02  1.0000000e-05  1.0000000e+01     hk      1.0000      0.0000   1
hk_240            log  factor   8.3114142E-02  1.0000000e-05  1.0000000e+01     hk      1.0000      0.0000   1
hk_241            log  factor   8.4326516E-02  1.0000000e-05  1.0000000e+01     hk      1.0000      0.0000   1
hk_242            log  factor   9.0904326E-02  1.0000000e-05  1.0000000e+01     hk      1.0000      0.0000   1
hk_243            log  factor   8.6639284E-02  1.0000000e-05  1.0000000e+01     hk      1.0000      0.0000   1
hk_244            log  factor   8.7354203E-02  1.0000000e-05  1.0000000e+01     hk      1.0000      0.0000   1
hk_245            log  factor   8.8731880E-02  1.0000000e-05  1.0000000e+01     hk      1.0000      0.0000   1
hk_246            log  factor   8.8498551E-02  1.0000000e-05  1.0000000e+01     hk      1.0000      0.0000   1
hk_247            log  factor   8.5370277E-02  1.0000000e-05  1.0000000e+01     hk      1.0000      0.0000   1
hk_248            log  factor   8.5316033E-02  1.0000000e-05  1.0000000e+01     hk      1.0000      0.0000   1
hk_249            log  factor   8.3198919E-02  1.0000000e-05  1.0000000e+01     hk      1.0000      0.0000   1
hk_250            log  factor   8.8442320E-02  1.0000000e-05  1.0000000e+01     hk      1.0000      0.0000   1
hk_251            log  factor   8.5811264E-02  1.0000000e-05  1.0000000e+01     hk      1.0000      0.0000   1
hk_252            log  factor   8.6814334E-02  1.0000000e-05  1.0000000e+01     hk      1.0000      0.0000   1
hk_253            log  factor   8.9371404E-02  1.0000000e-05  1.0000000e+01     hk      1.0000      0.0000   1
aniz_001        fixed  factor    1.000000      1.0000000e-06  5.0000000e+00   aniz      1.0000      0.0000   1
aniz_002        fixed  factor    1.000000      1.0000000e-06  5.0000000e+00   aniz      1.0000      0.0000   1
aniz_003        fixed  factor    1.000000      1.0000000e-06  5.0000000e+00   aniz      1.0000      0.0000   1
aniz_004        fixed  factor    1.000000      1.0000000e-06  5.0000000e+00   aniz      1.0000      0.0000   1
aniz_005        fixed  factor    1.000000      1.0000000e-06  5.0000000e+00   aniz      1.0000      0.0000   1
aniz_006        fixed  factor    1.000000      1.0000000e-06  5.0000000e+00   aniz      1.0000      0.0000   1
aniz_007        fixed  factor    1.000000      1.0000000e-06  5.0000000e+00   aniz      1.0000      0.0000   1
aniz_008        fixed  factor    1.000000      1.0000000e-06  5.0000000e+00   aniz      1.0000      0.0000   1
aniz_009        fixed  factor    1.000000      1.0000000e-06  5.0000000e+00   aniz      1.0000      0.0000   1