pcf
* control data
restart estimation
27  36  3  0  2
3  1  single  point  1  0  0
2.000000e+001  -3.000000e+000  3.000000e-001  1.000000e-002  -10 999 lamforgive
1.000000e+001  1.000000e+001  1.000000e-003
1.000000e-001 1 noaui
-1  1.000000e-002  3  3  1.000000e-002  3
0  0  0   PARSAVEITN
* singular value decomposition
  1
  25  5.000000e-007
  1
* parameter groups
Kp     relative   1.000000e-002  0.000000e+000  switch  2.000000e+000  parabolic
Cond   relative   1.000000e-002  0.000000e+000  switch  2.000000e+000  parabolic
syg    relative   1.000000e-002  0.000000e+000  switch  2.000000e+000  parabolic
* parameter data
rcond	log	factor	1	1.00E-10	5.00E+05	cond	156172	0	1
kpkp1	log	factor	1	1.00E-10	1.00E+10	kp	18.74444	0	1
kpkp2	log	factor	1	1.00E-10	1.00E+10	kp	35.6076	0	1
kpkp3	log	factor	1	1.00E-10	1.00E+10	kp	24.44181	0	1
kpkp4	log	factor	1	1.00E-10	1.00E+10	kp	30.21709	0	1
kpkp5	log	factor	1	1.00E-10	1.00E+10	kp	4.094587	0	1
kpkp6	log	factor	1	1.00E-10	1.00E+10	kp	265.7657	0	1
kpkp7	log	factor	1	1.00E-10	1.00E+10	kp	14.37501	0	1
kpkp8	log	factor	1	1.00E-10	1.00E+10	kp	3.091225	0	1
kpkp9	log	factor	1	1.00E-10	1.00E+10	kp	14.51836	0	1
kpkp10	log	factor	1	1.00E-10	1.00E+10	kp	96.15656	0	1
kpkp11	log	factor	1	1.00E-10	1.00E+10	kp	61.36889	0	1
kpkp12	log	factor	1	1.00E-10	1.00E+10	kp	747.1619	0	1
kpkp13	log	factor	1	1.00E-10	1.00E+10	kp	19.19531	0	1
kpkp14	log	factor	1	1.00E-10	1.00E+10	kp	32.02109	0	1
kpkp15	log	factor	1	1.00E-10	1.00E+10	kp	27.06403	0	1
kpkp16	log	factor	1	1.00E-10	1.00E+10	kp	87.68876	0	1
kpkp17	log	factor	1	1.00E-10	1.00E+10	kp	12.00374	0	1
kpkp18	log	factor	1	1.00E-10	1.00E+10	kp	7.597791	0	1
kpkp19	log	factor	1	1.00E-10	1.00E+10	kp	2210.948	0	1
kpkp20	log	factor	1	1.00E-10	1.00E+10	kp	58.31385	0	1
kpkp21	log	factor	1	1.00E-10	1.00E+10	kp	66.60733	0	1
kpkp22	log	factor	1	1.00E-10	1.00E+10	kp	48.25417	0	1
kpkp23	log	factor	1	1.00E-10	1.00E+10	kp	97.23334	0	1
kpkp24	log	factor	1	1.00E-10	1.00E+10	kp	28.49693	0	1
kpkp25	log	factor	1	1.00E-10	1.00E+10	kp	0.1798998	0	1
sy	log	factor	1	1.00E-10	1	syg	8.67E-04	0	1
* observation groups
heads
rflux
* observation data
P	509.12	550	heads
G	508.19	550	heads
F	508.17	550	heads
N	512.83	550	heads
J	515.71	550	heads
E	513.17	550	heads
A	512.22	550	heads
B	511.95	550	heads
K	513.24	550	heads
Q	518.32	550	heads
M	517.12	550	heads
I	519.28	550	heads
D	516.71	550	heads
C	516.03	550	heads
O	519.02	550	heads
H	519.7	550	heads
S	521.96	550	heads
P_T_1yr	508.53	550	heads
G_T_1yr	506.84	550	heads
F_T_1yr	506.25	550	heads
N_T_1yr	509.78	550	heads
J_T_1yr	511.62	550	heads
E_T_1yr	507.68	550	heads
A_T_1yr	507.27	550	heads
B_T_1yr	507.63	550	heads
K_T_1yr	507.76	550	heads
Q_T_1yr	510	550	heads
M_T_1yr	504.36	550	heads
I_T_1yr	512.82	550	heads
D_T_1yr	509.44	550	heads
C_T_1yr	510.12	550	heads
O_T_1yr	511.08	550	heads
H_T_1yr	512.94	550	heads
S_T_1yr	515.85	550	heads
toRiver	45550	2.20E-04	rflux
fromRiver	350	2.86E-02	rflux
* model command line
P10.bat
* model input/output
points1.tpl   points1.dat
P10_upw.tpl   P10.upw
P10_riv.tpl   P10.riv
resultsT_txt.ins resultsT.txt

