pcf
* control data
restart estimation
27  55  3  0  2
3  1  single  point  1  0  0
2.000000e+001  -3.000000e+000  3.000000e-001  1.000000e-002  -10 999 lamforgive
1.000000e+001  1.000000e+001  1.000000e-003
1.000000e-001 1 noaui
2  1.000000e-002  3  3  1.000000e-002  3 9.0E+06
0  0  0   PARSAVEITN
* singular value decomposition
  1
  25  5.000000e-007
  1
* parameter groups
Kp     relative   1.000000e-002  0.000000e+000  switch  2.000000e+000  parabolic
Cond   relative   1.000000e-002  0.000000e+000  switch  2.000000e+000  parabolic
syg    relative   1.000000e-002  0.000000e+000  switch  2.000000e+000  parabolic
* parameter data
rcond	log	factor	156172	1.00E-10	5.00E+05	cond	1	0	1
kpkp1	log	factor	18.74444	1.00E-10	1.00E+10	kp	1	0	1
kpkp2	log	factor	35.6076	1.00E-10	1.00E+10	kp	1	0	1
kpkp3	log	factor	24.44181	1.00E-10	1.00E+10	kp	1	0	1
kpkp4	log	factor	30.21709	1.00E-10	1.00E+10	kp	1	0	1
kpkp5	log	factor	4.094587	1.00E-10	1.00E+10	kp	1	0	1
kpkp6	log	factor	265.7657	1.00E-10	1.00E+10	kp	1	0	1
kpkp7	log	factor	14.37501	1.00E-10	1.00E+10	kp	1	0	1
kpkp8	log	factor	3.091225	1.00E-10	1.00E+10	kp	1	0	1
kpkp9	log	factor	14.51836	1.00E-10	1.00E+10	kp	1	0	1
kpkp10	log	factor	96.15656	1.00E-10	1.00E+10	kp	1	0	1
kpkp11	log	factor	61.36889	1.00E-10	1.00E+10	kp	1	0	1
kpkp12	log	factor	747.1619	1.00E-10	1.00E+10	kp	1	0	1
kpkp13	log	factor	19.19531	1.00E-10	1.00E+10	kp	1	0	1
kpkp14	log	factor	32.02109	1.00E-10	1.00E+10	kp	1	0	1
kpkp15	log	factor	27.06403	1.00E-10	1.00E+10	kp	1	0	1
kpkp16	log	factor	87.68876	1.00E-10	1.00E+10	kp	1	0	1
kpkp17	log	factor	12.00374	1.00E-10	1.00E+10	kp	1	0	1
kpkp18	log	factor	7.597791	1.00E-10	1.00E+10	kp	1	0	1
kpkp19	log	factor	2210.948	1.00E-10	1.00E+10	kp	1	0	1
kpkp20	log	factor	58.31385	1.00E-10	1.00E+10	kp	1	0	1
kpkp21	log	factor	66.60733	1.00E-10	1.00E+10	kp	1	0	1
kpkp22	log	factor	48.25417	1.00E-10	1.00E+10	kp	1	0	1
kpkp23	log	factor	97.23334	1.00E-10	1.00E+10	kp	1	0	1
kpkp24	log	factor	28.49693	1.00E-10	1.00E+10	kp	1	0	1
kpkp25	log	factor	0.1798998	1.00E-10	1.00E+10	kp	1	0	1
sy	log	factor	8.67E-04	1.00E-10	1	syg	1	0	1
* observation groups
heads
rflux
* observation data
P	509.12	550	heads
G	508.19	550	heads
F	508.17	550	heads
N	512.83	550	heads
J	515.71	550	heads
E	513.17	550	heads
A	512.22	550	heads
B	511.95	550	heads
K	513.24	550	heads
Q	518.32	550	heads
M	517.12	550	heads
I	519.28	550	heads
D	516.71	550	heads
C	516.03	550	heads
O	519.02	550	heads
H	519.7	550	heads
S	521.96	550	heads
P_T	509.11	550	heads
G_T	507.99	550	heads
F_T	507.79	550	heads
N_T	512.83	550	heads
J_T	515.71	550	heads
E_T	513.04	550	heads
A_T	508.8	550	heads
B_T	511.29	550	heads
K_T	512.21	550	heads
Q_T	518.18	550	heads
M_T	516.88	550	heads
I_T	518.86	550	heads
D_T	516.17	550	heads
C_T	515.66	550	heads
O_T	518.86	550	heads
H_T	519.55	550	heads
S_T	521.95	550	heads
P_T_1yr	508.53	0	heads
G_T_1yr	506.84	0	heads
F_T_1yr	506.25	0	heads
N_T_1yr	509.78	0	heads
J_T_1yr	511.62	0	heads
E_T_1yr	507.68	0	heads
A_T_1yr	507.27	0	heads
B_T_1yr	507.63	0	heads
K_T_1yr	507.76	0	heads
Q_T_1yr	510	0	heads
M_T_1yr	504.36	0	heads
I_T_1yr	512.82	0	heads
D_T_1yr	509.44	0	heads
C_T_1yr	510.12	0	heads
O_T_1yr	511.08	0	heads
H_T_1yr	512.94	0	heads
S_T_1yr	515.85	0	heads
toRiver	45550	0.011	rflux
fromRiver	350	1.43	rflux
toRiverT	125700	0.011	rflux
fromRiverT	1030	1.43	rflux
* model command line
P10.bat
* model input/output
points1.tpl   points1.dat
P10_upw.tpl   P10.upw
P10_riv.tpl   P10.riv
resultsT_txt.ins resultsT.txt

