pcf
* control data
restart estimation
27  38  3  0  2
3  1  single  point  1  0  0
2.000000e+001  -3.000000e+000  3.000000e-001  1.000000e-002  -10 999 lamforgive
1.000000e+001  1.000000e+001  1.000000e-003
1.000000e-001 1 noaui
10  1.000000e-002  3  3  1.000000e-002  3
0  0  0   PARSAVEITN
* singular value decomposition
  1
  25  5.000000e-007
  1
* parameter groups
Kp     relative   1.000000e-002  0.000000e+000  switch  2.000000e+000  parabolic
Cond   relative   1.000000e-002  0.000000e+000  switch  2.000000e+000  parabolic
syg    relative   1.000000e-002  0.000000e+000  switch  2.000000e+000  parabolic
* parameter data
rcond log factor    156172.0      1.00e-10 5.00e+5 cond 1 0 1
kpkp1	log	factor    18.74444      1.00e-10	1.00e+10	kp	1	0	1
kpkp2	log	factor    35.60760      1.00e-10	1.00e+10	kp	1	0	1
kpkp3	log	factor    24.44181      1.00e-10	1.00e+10	kp	1	0	1
kpkp4	log	factor    30.21709      1.00e-10	1.00e+10	kp	1	0	1
kpkp5	log	factor    4.094587      1.00e-10	1.00e+10	kp	1	0	1
kpkp6	log	factor    265.7657      1.00e-10	1.00e+10	kp	1	0	1
kpkp7	log	factor    14.37501      1.00e-10	1.00e+10	kp	1	0	1
kpkp8	log	factor    3.091225      1.00e-10	1.00e+10	kp	1	0	1
kpkp9	log	factor    14.51836      1.00e-10	1.00e+10	kp	1	0	1
kpkp10	log	factor    96.15656      1.00e-10	1.00e+10	kp	1	0	1
kpkp11	log	factor    61.36889      1.00e-10	1.00e+10	kp	1	0	1
kpkp12	log	factor    747.1619      1.00e-10	1.00e+10	kp	1	0	1
kpkp13	log	factor    19.19531      1.00e-10	1.00e+10	kp	1	0	1
kpkp14	log	factor    32.02109      1.00e-10	1.00e+10	kp	1	0	1
kpkp15	log	factor    27.06403      1.00e-10	1.00e+10	kp	1	0	1
kpkp16	log	factor    87.68876      1.00e-10	1.00e+10	kp	1	0	1
kpkp17	log	factor    12.00374      1.00e-10	1.00e+10	kp	1	0	1
kpkp18	log	factor    7.597791      1.00e-10	1.00e+10	kp	1	0	1
kpkp19	log	factor    2210.948      1.00e-10	1.00e+10	kp	1	0	1
kpkp20	log	factor    58.31385      1.00e-10	1.00e+10	kp	1	0	1
kpkp21	log	factor    66.60733      1.00e-10	1.00e+10	kp	1	0	1
kpkp22	log	factor    48.25417      1.00e-10	1.00e+10	kp	1	0	1
kpkp23	log	factor    97.23334      1.00e-10	1.00e+10	kp	1	0	1
kpkp24	log	factor    28.49693      1.00e-10	1.00e+10	kp	1	0	1
kpkp25	log	factor   0.1798998      1.00e-10	1.00e+10	kp	1	0	1
sy log  factor   8.6679082E-04  1.000000e-10  1.0  syg  1.0  0.0  1
* observation groups
heads
rflux
* observation data
P	509.12	550	heads
G	508.19	550	heads
F	508.17	550	heads
N	512.83	550	heads
J	515.71	550	heads
E	513.17	550	heads
A	512.22	550	heads
B	511.95	550	heads
K	513.24	550	heads
Q	518.32	550	heads
M	517.12	550	heads
I	519.28	550	heads
D	516.71	550	heads
C	516.03	550	heads
O	519.02	550	heads
H	519.7	550	heads
S	521.96	550	heads
P_T	509.11	550	heads
G_T	507.99	550	heads
F_T	507.79	550	heads
N_T	512.83	550	heads
J_T	515.71	550	heads
E_T	513.04	550	heads
A_T	508.8	550	heads
B_T	511.29	550	heads
K_T	512.21	550	heads
Q_T	518.18	550	heads
M_T	516.88	550	heads
I_T	518.86	550	heads
D_T	516.17	550	heads
C_T	515.66	550	heads
O_T	518.86	550	heads
H_T	519.55	550	heads
S_T	521.95	550	heads
toRiver	45550	2.20E-04	rflux
fromRiver	350	2.86E-02	rflux
toRiverT	125700	2.20E-04	rflux
fromRiverT	1030	2.86E-02	rflux
* model command line
P9T.bat
* model input/output
points1.tpl   points1.dat
P9Tcal_upw.tpl   P9Tcal.upw
P9cal_riv.tpl   P9Tcal.riv
resultsT_txt.ins resultsT.txt

