pcf
* control data
restart regularise
650  494  6  7520  13
10 6   single  point  1  0  0
2.000000e+001  -3.000000e+000  3.000000e-001  1.000000e-002  7 999 lamforgive
1.000000e+001  1.000000e+001  1.000000e-003
1.000000e-001 1 noaui
10  1.000000e-002  3  3  1.000000e-002  3
0  0  0   PARSAVEITN REISAVEITN
* singular value decomposition
  1
  640  5.000000e-007
  1
* parameter groups
Stor   relative   1.000000e-002  0.000000e+000  switch  2.000000e+000  parabolic
Rech   relative   1.000000e-002  0.000000e+000  switch  2.000000e+000  parabolic
Cond   relative   1.000000e-002  0.000000e+000  switch  2.000000e+000  parabolic
K_mult   relative   1.000000e-002  0.000000e+000  switch  2.000000e+000  parabolic
Kp   relative   1.000000e-002  0.000000e+000  switch  2.000000e+000  parabolic
Kz   relative   1.000000e-002  0.000000e+000  switch  2.000000e+000  parabolic
* parameter data
kh_l3_lake   fixed   factor    1.000000      1.00000e-04   1.00000e+04   k_mult   5.00000e+00   0.00000e+00   1
kh_l3_land   log   factor   0.9269547      1.00000e-04   1.00000e+04   k_mult   3.00000e+00   0.00000e+00   1
kh_l4_lake   fixed   factor    1.00000     1.00000e-04   1.00000e+04   k_mult   5.00000e+00   0.00000e+00   1
kh_l4_land   log   factor   0.8466225      1.00000e-04   1.00000e+04   k_mult   3.00000e+00   0.00000e+00   1
kv_l3_lake   fixed   factor    1.00000      1.00000e-04   1.00000e+04   k_mult   5.00000e-02   0.00000e+00   1
kv_l3_land   log   factor   0.9041438      1.00000e-04   1.00000e+04   k_mult   3.00000e-02   0.00000e+00   1
kv_l4_lake   fixed   factor    1.00000      1.00000e-04   1.00000e+04   k_mult   5.00000e-02   0.00000e+00   1
kv_l4_land   log   factor   0.9005394      1.00000e-04   1.00000e+04   k_mult   3.00000e-02   0.00000e+00   1
kh_deep_ss   log   factor   0.1111801      1.00000e-01   1.00000e+01   k_mult   3.000000+00   0.00000e+00   1
kv_deep_ss   log   factor    1.120709      1.00000e-01   1.00000e+01   k_mult   3.00000e-02   0.00000e+00   1
subls_kh    log    factor    1.00E+00    1.00E-10    1.00E+10    k_mult    4.00E-01    0    1
copfal_kh    log    factor    1.00E+00    1.00E-10    1.00E+10    k_mult    4.00E+01    0    1
submc_kh    log    factor    1.00E+00    1.00E-10    1.00E+10    k_mult    5.00E+00    0    1
mc_min_kh    log    factor    1.00E+00    1.00E-10    2.50E+00    k_mult    4.00E-01    0    1
subls_vani    log    factor    1.00E+00    1.00E-10    1.00E+10    k_mult    1.00E+02    0    1
copfal_vani    log    factor    1.00E+00    1.00E-10    1.00E+10    k_mult    1.00E+02    0    1
submc_vani    log    factor    1.00E+00    1.00E-10    1.00E+10    k_mult    1.00E+02    0    1
mc_vani    log    factor    1.00E+00    1.00E-10    1.00E+10    k_mult    1.00E+02    0    1
mc_ord_rng    none    factor    2.00E+00    1.60E+00    2.40E+00    k_mult    1.00E+00    0    1
r1   fixed   factor    0.000000      -1.00000e+10   1.00000e+10   rech   1.00000e+00   0.00000e+00   1
r2   fixed   factor    1.000000      8.00000e-01   1.333333e+00   rech   9.1262e-04   0.00000e+00   1
r3   none   factor   1.0000      8.00000e-01   1.333333e+00   rech    3.422310000E-03   0.00000e+00   1
ghbc   fixed   factor    1.000000      1.00000e-10   1.00000e+10   cond   1.3900e+00   0.00000e+00   1
sfrc   none   factor   0.9374568      1.00000e-10   1.00000e+10   cond   5.00000e+00   0.00000e+00   1
s   log   factor   0.8058867      1.00000e-10   1.00000e+10   stor   2.60000e-07   0.00000e+00   1
sy   log   factor   0.9553352      1.00000e-10   1.00000e+10   stor   5.00000e-02   0.00000e+00   1
kpkx1_4    log    factor    1.00000000    1.00E-03    1.00E+03    kp    3.00E+00    0.00E+00    1
kpkx2_4    log    factor    1.00000000    1.00E-03    1.00E+03    kp    3.00E+00    0.00E+00    1
kpkx3_4    log    factor    1.00000000    1.00E-03    1.00E+03    kp    3.00E+00    0.00E+00    1
kpkx4_4    log    factor    1.00000000    1.00E-03    1.00E+03    kp    3.00E+00    0.00E+00    1
kpkx5_4    log    factor    1.00000000    1.00E-03    1.00E+03    kp    3.00E+00    0.00E+00    1
kpkx6_4    log    factor    1.00000000    1.00E-03    1.00E+03    kp    3.00E+00    0.00E+00    1
kpkx7_4    log    factor    1.00000000    1.00E-03    1.00E+03    kp    3.00E+00    0.00E+00    1
kpkx8_4    log    factor    1.00000000    1.00E-03    1.00E+03    kp    3.00E+00    0.00E+00    1
kpkx9_4    log    factor    1.00000000    1.00E-03    1.00E+03    kp    3.00E+00    0.00E+00    1
kpkx10_4    log    factor    1.00000000    1.00E-03    1.00E+03    kp    3.00E+00    0.00E+00    1
kpkx11_4    log    factor    1.00000000    1.00E-03    1.00E+03    kp    3.00E+00    0.00E+00    1
kpkx12_4    log    factor    1.00000000    1.00E-03    1.00E+03    kp    3.00E+00    0.00E+00    1
kpkx13_4    log    factor    1.00000000    1.00E-03    1.00E+03    kp    3.00E+00    0.00E+00    1
kpkx14_4    log    factor    1.00000000    1.00E-03    1.00E+03    kp    3.00E+00    0.00E+00    1
kpkx15_4    log    factor    1.00000000    1.00E-03    1.00E+03    kp    3.00E+00    0.00E+00    1
kpkx16_4    log    factor    1.00000000    1.00E-03    1.00E+03    kp    3.00E+00    0.00E+00    1
kpkx17_4    log    factor    1.00000000    1.00E-03    1.00E+03    kp    3.00E+00    0.00E+00    1
kpkx18_4    log    factor    1.00000000    1.00E-03    1.00E+03    kp    3.00E+00    0.00E+00    1
kpkx19_4    log    factor    1.00000000    1.00E-03    1.00E+03    kp    3.00E+00    0.00E+00    1
kpkx20_4    log    factor    1.00000000    1.00E-03    1.00E+03    kp    3.00E+00    0.00E+00    1
kpkx21_4    log    factor    1.00000000    1.00E-03    1.00E+03    kp    3.00E+00    0.00E+00    1
kpkx22_4    log    factor    1.00000000    1.00E-03    1.00E+03    kp    3.00E+00    0.00E+00    1
kpkx23_4    log    factor    1.00000000    1.00E-03    1.00E+03    kp    3.00E+00    0.00E+00    1
kpkx24_4    log    factor    1.00000000    1.00E-03    1.00E+03    kp    3.00E+00    0.00E+00    1
kpkx25_4    log    factor    1.00000000    1.00E-03    1.00E+03    kp    3.00E+00    0.00E+00    1
kpkx26_4    log    factor    1.00000000    1.00E-03    1.00E+03    kp    3.00E+00    0.00E+00    1
kpkx27_4    log    factor    1.00000000    1.00E-03    1.00E+03    kp    3.00E+00    0.00E+00    1
kpkx28_4    log    factor    1.00000000    1.00E-03    1.00E+03    kp    3.00E+00    0.00E+00    1
kpkx29_4    log    factor    1.00000000    1.00E-03    1.00E+03    kp    3.00E+00    0.00E+00    1
kpkx30_4    log    factor    1.00000000    1.00E-03    1.00E+03    kp    3.00E+00    0.00E+00    1
kpkx31_4    log    factor    1.00000000    1.00E-03    1.00E+03    kp    3.00E+00    0.00E+00    1
kpkx32_4    log    factor    1.00000000    1.00E-03    1.00E+03    kp    3.00E+00    0.00E+00    1
kpkx33_4    log    factor    1.00000000    1.00E-03    1.00E+03    kp    3.00E+00    0.00E+00    1
kpkx34_4    log    factor    1.00000000    1.00E-03    1.00E+03    kp    3.00E+00    0.00E+00    1
kpkx35_4    log    factor    1.00000000    1.00E-03    1.00E+03    kp    3.00E+00    0.00E+00    1
kpkx36_4    log    factor    1.00000000    1.00E-03    1.00E+03    kp    3.00E+00    0.00E+00    1
kpkx37_4    log    factor    1.00000000    1.00E-03    1.00E+03    kp    3.00E+00    0.00E+00    1
kpkx38_4    log    factor    1.00000000    1.00E-03    1.00E+03    kp    3.00E+00    0.00E+00    1
kpkx39_4    log    factor    1.00000000    1.00E-03    1.00E+03    kp    3.00E+00    0.00E+00    1
kpkx40_4    log    factor    1.00000000    1.00E-03    1.00E+03    kp    3.00E+00    0.00E+00    1
kpkx41_4    log    factor    1.00000000    1.00E-03    1.00E+03    kp    3.00E+00    0.00E+00    1
kpkx42_4    log    factor    1.00000000    1.00E-03    1.00E+03    kp    3.00E+00    0.00E+00    1
kpkx43_4    log    factor    1.00000000    1.00E-03    1.00E+03    kp    3.00E+00    0.00E+00    1
kpkx44_4    log    factor    1.00000000    1.00E-03    1.00E+03    kp    3.00E+00    0.00E+00    1
kpkx45_4    log    factor    1.00000000    1.00E-03    1.00E+03    kp    3.00E+00    0.00E+00    1
kpkx46_4    log    factor    1.00000000    1.00E-03    1.00E+03    kp    3.00E+00    0.00E+00    1
kpkx47_4    log    factor    1.00000000    1.00E-03    1.00E+03    kp    3.00E+00    0.00E+00    1
kpkx48_4    log    factor    1.00000000    1.00E-03    1.00E+03    kp    3.00E+00    0.00E+00    1
kpkx49_4    log    factor    1.00000000    1.00E-03    1.00E+03    kp    3.00E+00    0.00E+00    1
kpkx50_4    log    factor    1.00000000    1.00E-03    1.00E+03    kp    3.00E+00    0.00E+00    1
kpkx51_4    log    factor    1.00000000    1.00E-03    1.00E+03    kp    3.00E+00    0.00E+00    1
kpkx52_4    log    factor    1.00000000    1.00E-03    1.00E+03    kp    3.00E+00    0.00E+00    1
kpkx53_4    log    factor    1.00000000    1.00E-03    1.00E+03    kp    3.00E+00    0.00E+00    1
kpkx54_4    log    factor    1.00000000    1.00E-03    1.00E+03    kp    3.00E+00    0.00E+00    1
kpkx55_4    log    factor    1.00000000    1.00E-03    1.00E+03    kp    3.00E+00    0.00E+00    1
kpkx56_4    log    factor    1.00000000    1.00E-03    1.00E+03    kp    3.00E+00    0.00E+00    1
kpkx57_4    log    factor    1.00000000    1.00E-03    1.00E+03    kp    3.00E+00    0.00E+00    1
kpkx58_4    log    factor    1.00000000    1.00E-03    1.00E+03    kp    3.00E+00    0.00E+00    1
kpkx59_4    log    factor    1.00000000    1.00E-03    1.00E+03    kp    3.00E+00    0.00E+00    1
kpkx60_4    log    factor    1.00000000    1.00E-03    1.00E+03    kp    3.00E+00    0.00E+00    1
kpkx61_4    log    factor    1.00000000    1.00E-03    1.00E+03    kp    3.00E+00    0.00E+00    1
kpkx62_4    log    factor    1.00000000    1.00E-03    1.00E+03    kp    3.00E+00    0.00E+00    1
kpkx63_4    log    factor    1.00000000    1.00E-03    1.00E+03    kp    3.00E+00    0.00E+00    1
kpkx64_4    log    factor    1.00000000    1.00E-03    1.00E+03    kp    3.00E+00    0.00E+00    1
kpkx65_4    log    factor    1.00000000    1.00E-03    1.00E+03    kp    3.00E+00    0.00E+00    1
kpkx66_4    log    factor    1.00000000    1.00E-03    1.00E+03    kp    3.00E+00    0.00E+00    1
kpkx67_4    log    factor    1.00000000    1.00E-03    1.00E+03    kp    3.00E+00    0.00E+00    1
kpkx68_4    log    factor    1.00000000    1.00E-03    1.00E+03    kp    3.00E+00    0.00E+00    1
kpkx69_4    log    factor    1.00000000    1.00E-03    1.00E+03    kp    3.00E+00    0.00E+00    1
kpkx70_4    log    factor    1.00000000    1.00E-03    1.00E+03    kp    3.00E+00    0.00E+00    1
kpkx71_4    log    factor    1.00000000    1.00E-03    1.00E+03    kp    3.00E+00    0.00E+00    1
kpkx72_4    log    factor    1.00000000    1.00E-03    1.00E+03    kp    3.00E+00    0.00E+00    1
kpkx73_4    log    factor    1.00000000    1.00E-03    1.00E+03    kp    3.00E+00    0.00E+00    1
kpkx74_4    log    factor    1.00000000    1.00E-03    1.00E+03    kp    3.00E+00    0.00E+00    1
kpkx75_4    log    factor    1.00000000    1.00E-03    1.00E+03    kp    3.00E+00    0.00E+00    1
kpkx76_4    log    factor    1.00000000    1.00E-03    1.00E+03    kp    3.00E+00    0.00E+00    1
kpkx77_4    log    factor    1.00000000    1.00E-03    1.00E+03    kp    3.00E+00    0.00E+00    1
kpkx78_4    log    factor    1.00000000    1.00E-03    1.00E+03    kp    3.00E+00    0.00E+00    1
kpkx79_4    log    factor    1.00000000    1.00E-03    1.00E+03    kp    3.00E+00    0.00E+00    1
kpkx80_4    log    factor    1.00000000    1.00E-03    1.00E+03    kp    3.00E+00    0.00E+00    1
kpkx81_4    log    factor    1.00000000    1.00E-03    1.00E+03    kp    3.00E+00    0.00E+00    1
kpkx82_4    log    factor    1.00000000    1.00E-03    1.00E+03    kp    3.00E+00    0.00E+00    1
kpkx83_4    log    factor    1.00000000    1.00E-03    1.00E+03    kp    3.00E+00    0.00E+00    1
kpkx84_4    log    factor    1.00000000    1.00E-03    1.00E+03    kp    3.00E+00    0.00E+00    1
kpkx85_4    log    factor    1.00000000    1.00E-03    1.00E+03    kp    3.00E+00    0.00E+00    1
kpkx86_4    log    factor    1.00000000    1.00E-03    1.00E+03    kp    3.00E+00    0.00E+00    1
kpkx87_4    log    factor    1.00000000    1.00E-03    1.00E+03    kp    3.00E+00    0.00E+00    1
kpkx88_4    log    factor    1.00000000    1.00E-03    1.00E+03    kp    3.00E+00    0.00E+00    1
kpkx89_4    log    factor    1.00000000    1.00E-03    1.00E+03    kp    3.00E+00    0.00E+00    1
kpkx90_4    log    factor    1.00000000    1.00E-03    1.00E+03    kp    3.00E+00    0.00E+00    1
kpkx91_4    log    factor    1.00000000    1.00E-03    1.00E+03    kp    3.00E+00    0.00E+00    1
kpkx92_4    log    factor    1.00000000    1.00E-03    1.00E+03    kp    3.00E+00    0.00E+00    1
kpkx93_4    log    factor    1.00000000    1.00E-03    1.00E+03    kp    3.00E+00    0.00E+00    1
kpkx94_4    log    factor    1.00000000    1.00E-03    1.00E+03    kp    3.00E+00    0.00E+00    1
kpkx95_4    log    factor    1.00000000    1.00E-03    1.00E+03    kp    3.00E+00    0.00E+00    1
kpkx96_4    log    factor    1.00000000    1.00E-03    1.00E+03    kp    3.00E+00    0.00E+00    1
kpkx97_4    log    factor    1.00000000    1.00E-03    1.00E+03    kp    3.00E+00    0.00E+00    1
kpkx98_4    log    factor    1.00000000    1.00E-03    1.00E+03    kp    3.00E+00    0.00E+00    1
kpkx99_4    log    factor    1.00000000    1.00E-03    1.00E+03    kp    3.00E+00    0.00E+00    1
kpkx100_4    log    factor    1.00000000    1.00E-03    1.00E+03    kp    3.00E+00    0.00E+00    1
kpkx101_4    log    factor    1.00000000    1.00E-03    1.00E+03    kp    3.00E+00    0.00E+00    1
kpkx102_4    log    factor    1.00000000    1.00E-03    1.00E+03    kp    3.00E+00    0.00E+00    1
kpkx103_4    log    factor    1.00000000    1.00E-03    1.00E+03    kp    3.00E+00    0.00E+00    1
kpkx104_4    log    factor    1.00000000    1.00E-03    1.00E+03    kp    3.00E+00    0.00E+00    1
kpkx105_4    log    factor    1.00000000    1.00E-03    1.00E+03    kp    3.00E+00    0.00E+00    1
kpkx106_4    log    factor    1.00000000    1.00E-03    1.00E+03    kp    3.00E+00    0.00E+00    1
kpkx107_4    log    factor    1.00000000    1.00E-03    1.00E+03    kp    3.00E+00    0.00E+00    1
kpkx108_4    log    factor    1.00000000    1.00E-03    1.00E+03    kp    3.00E+00    0.00E+00    1
kpkx109_4    log    factor    1.00000000    1.00E-03    1.00E+03    kp    3.00E+00    0.00E+00    1
kpkx110_4    log    factor    1.00000000    1.00E-03    1.00E+03    kp    3.00E+00    0.00E+00    1
kpkx111_4    log    factor    1.00000000    1.00E-03    1.00E+03    kp    3.00E+00    0.00E+00    1
kpkx112_4    log    factor    1.00000000    1.00E-03    1.00E+03    kp    3.00E+00    0.00E+00    1
kpkx113_4    log    factor    1.00000000    1.00E-03    1.00E+03    kp    3.00E+00    0.00E+00    1
kpkx114_4    log    factor    1.00000000    1.00E-03    1.00E+03    kp    3.00E+00    0.00E+00    1
kpkx115_4    log    factor    1.00000000    1.00E-03    1.00E+03    kp    3.00E+00    0.00E+00    1
kpkx116_4    log    factor    1.00000000    1.00E-03    1.00E+03    kp    3.00E+00    0.00E+00    1
kpkx117_4    log    factor    1.00000000    1.00E-03    1.00E+03    kp    3.00E+00    0.00E+00    1
kpkx118_4    log    factor    1.00000000    1.00E-03    1.00E+03    kp    3.00E+00    0.00E+00    1
kpkx119_4    log    factor    1.00000000    1.00E-03    1.00E+03    kp    3.00E+00    0.00E+00    1
kpkx120_4    log    factor    1.00000000    1.00E-03    1.00E+03    kp    3.00E+00    0.00E+00    1
kpkx121_4    log    factor    1.00000000    1.00E-03    1.00E+03    kp    3.00E+00    0.00E+00    1
kpkx122_4    log    factor    1.00000000    1.00E-03    1.00E+03    kp    3.00E+00    0.00E+00    1
kpkx123_4    log    factor    1.00000000    1.00E-03    1.00E+03    kp    3.00E+00    0.00E+00    1
kpkx124_4    log    factor    1.00000000    1.00E-03    1.00E+03    kp    3.00E+00    0.00E+00    1
kpkx125_4    log    factor    1.00000000    1.00E-03    1.00E+03    kp    3.00E+00    0.00E+00    1
kpkx126_4    log    factor    1.00000000    1.00E-03    1.00E+03    kp    3.00E+00    0.00E+00    1
kpkx127_4    log    factor    1.00000000    1.00E-03    1.00E+03    kp    3.00E+00    0.00E+00    1
kpkx128_4    log    factor    1.00000000    1.00E-03    1.00E+03    kp    3.00E+00    0.00E+00    1
kpkx129_4    log    factor    1.00000000    1.00E-03    1.00E+03    kp    3.00E+00    0.00E+00    1
kpkx130_4    log    factor    1.00000000    1.00E-03    1.00E+03    kp    3.00E+00    0.00E+00    1
kpkx131_4    log    factor    1.00000000    1.00E-03    1.00E+03    kp    3.00E+00    0.00E+00    1
kpkx132_4    log    factor    1.00000000    1.00E-03    1.00E+03    kp    3.00E+00    0.00E+00    1
kpkx133_4    log    factor    1.00000000    1.00E-03    1.00E+03    kp    3.00E+00    0.00E+00    1
kpkx134_4    log    factor    1.00000000    1.00E-03    1.00E+03    kp    3.00E+00    0.00E+00    1
kpkx135_4    log    factor    1.00000000    1.00E-03    1.00E+03    kp    3.00E+00    0.00E+00    1
kpkx136_4    log    factor    1.00000000    1.00E-03    1.00E+03    kp    3.00E+00    0.00E+00    1
kpkx137_4    log    factor    1.00000000    1.00E-03    1.00E+03    kp    3.00E+00    0.00E+00    1
kpkx138_4    log    factor    1.00000000    1.00E-03    1.00E+03    kp    3.00E+00    0.00E+00    1
kpkx139_4    log    factor    1.00000000    1.00E-03    1.00E+03    kp    3.00E+00    0.00E+00    1
kpkx140_4    log    factor    1.00000000    1.00E-03    1.00E+03    kp    3.00E+00    0.00E+00    1
kpkx141_4    log    factor    1.00000000    1.00E-03    1.00E+03    kp    3.00E+00    0.00E+00    1
kpkx142_4    log    factor    1.00000000    1.00E-03    1.00E+03    kp    3.00E+00    0.00E+00    1
kpkx143_4    log    factor    1.00000000    1.00E-03    1.00E+03    kp    3.00E+00    0.00E+00    1
kpkx144_4    log    factor    1.00000000    1.00E-03    1.00E+03    kp    3.00E+00    0.00E+00    1
kpkx145_4    log    factor    1.00000000    1.00E-03    1.00E+03    kp    3.00E+00    0.00E+00    1
kpkx146_4    log    factor    1.00000000    1.00E-03    1.00E+03    kp    3.00E+00    0.00E+00    1
kpkx147_4    log    factor    1.00000000    1.00E-03    1.00E+03    kp    3.00E+00    0.00E+00    1
kpkx152_4    log    factor    1.00000000    1.00E-03    1.00E+03    kp    3.00E+00    0.00E+00    1
kpkx149_4    log    factor    1.00000000    1.00E-03    1.00E+03    kp    3.00E+00    0.00E+00    1
kpkx148_4    log    factor    1.00000000    1.00E-03    1.00E+03    kp    3.00E+00    0.00E+00    1
kpkx151_4    log    factor    1.00000000    1.00E-03    1.00E+03    kp    3.00E+00    0.00E+00    1
kpkx154_4    log    factor    1.00000000    1.00E-03    1.00E+03    kp    3.00E+00    0.00E+00    1
kpkx150_4    log    factor    1.00000000    1.00E-03    1.00E+03    kp    3.00E+00    0.00E+00    1
kpkx155_4    log    factor    1.00000000    1.00E-03    1.00E+03    kp    3.00E+00    0.00E+00    1
kpkx153_4    log    factor    1.00000000    1.00E-03    1.00E+03    kp    3.00E+00    0.00E+00    1
kpkx156_4    log    factor    1.00000000    1.00E-03    1.00E+03    kp    3.00E+00    0.00E+00    1
kpkx1_5    log    factor    1.00000000    1.00E-03    1.00E+03    kp    3.00E+00    0.00E+00    1
kpkx2_5    log    factor    1.00000000    1.00E-03    1.00E+03    kp    3.00E+00    0.00E+00    1
kpkx3_5    log    factor    1.00000000    1.00E-03    1.00E+03    kp    3.00E+00    0.00E+00    1
kpkx4_5    log    factor    1.00000000    1.00E-03    1.00E+03    kp    3.00E+00    0.00E+00    1
kpkx5_5    log    factor    1.00000000    1.00E-03    1.00E+03    kp    3.00E+00    0.00E+00    1
kpkx6_5    log    factor    1.00000000    1.00E-03    1.00E+03    kp    3.00E+00    0.00E+00    1
kpkx7_5    log    factor    1.00000000    1.00E-03    1.00E+03    kp    3.00E+00    0.00E+00    1
kpkx8_5    log    factor    1.00000000    1.00E-03    1.00E+03    kp    3.00E+00    0.00E+00    1
kpkx9_5    log    factor    1.00000000    1.00E-03    1.00E+03    kp    3.00E+00    0.00E+00    1
kpkx10_5    log    factor    1.00000000    1.00E-03    1.00E+03    kp    3.00E+00    0.00E+00    1
kpkx11_5    log    factor    1.00000000    1.00E-03    1.00E+03    kp    3.00E+00    0.00E+00    1
kpkx12_5    log    factor    1.00000000    1.00E-03    1.00E+03    kp    3.00E+00    0.00E+00    1
kpkx13_5    log    factor    1.00000000    1.00E-03    1.00E+03    kp    3.00E+00    0.00E+00    1
kpkx14_5    log    factor    1.00000000    1.00E-03    1.00E+03    kp    3.00E+00    0.00E+00    1
kpkx15_5    log    factor    1.00000000    1.00E-03    1.00E+03    kp    3.00E+00    0.00E+00    1
kpkx16_5    log    factor    1.00000000    1.00E-03    1.00E+03    kp    3.00E+00    0.00E+00    1
kpkx17_5    log    factor    1.00000000    1.00E-03    1.00E+03    kp    3.00E+00    0.00E+00    1
kpkx18_5    log    factor    1.00000000    1.00E-03    1.00E+03    kp    3.00E+00    0.00E+00    1
kpkx19_5    log    factor    1.00000000    1.00E-03    1.00E+03    kp    3.00E+00    0.00E+00    1
kpkx20_5    log    factor    1.00000000    1.00E-03    1.00E+03    kp    3.00E+00    0.00E+00    1
kpkx21_5    log    factor    1.00000000    1.00E-03    1.00E+03    kp    3.00E+00    0.00E+00    1
kpkx22_5    log    factor    1.00000000    1.00E-03    1.00E+03    kp    3.00E+00    0.00E+00    1
kpkx23_5    log    factor    1.00000000    1.00E-03    1.00E+03    kp    3.00E+00    0.00E+00    1
kpkx24_5    log    factor    1.00000000    1.00E-03    1.00E+03    kp    3.00E+00    0.00E+00    1
kpkx25_5    log    factor    1.00000000    1.00E-03    1.00E+03    kp    3.00E+00    0.00E+00    1
kpkx26_5    log    factor    1.00000000    1.00E-03    1.00E+03    kp    3.00E+00    0.00E+00    1
kpkx27_5    log    factor    1.00000000    1.00E-03    1.00E+03    kp    3.00E+00    0.00E+00    1
kpkx28_5    log    factor    1.00000000    1.00E-03    1.00E+03    kp    3.00E+00    0.00E+00    1
kpkx29_5    log    factor    1.00000000    1.00E-03    1.00E+03    kp    3.00E+00    0.00E+00    1
kpkx30_5    log    factor    1.00000000    1.00E-03    1.00E+03    kp    3.00E+00    0.00E+00    1
kpkx31_5    log    factor    1.00000000    1.00E-03    1.00E+03    kp    3.00E+00    0.00E+00    1
kpkx32_5    log    factor    1.00000000    1.00E-03    1.00E+03    kp    3.00E+00    0.00E+00    1
kpkx33_5    log    factor    1.00000000    1.00E-03    1.00E+03    kp    3.00E+00    0.00E+00    1
kpkx34_5    log    factor    1.00000000    1.00E-03    1.00E+03    kp    3.00E+00    0.00E+00    1
kpkx35_5    log    factor    1.00000000    1.00E-03    1.00E+03    kp    3.00E+00    0.00E+00    1
kpkx36_5    log    factor    1.00000000    1.00E-03    1.00E+03    kp    3.00E+00    0.00E+00    1
kpkx37_5    log    factor    1.00000000    1.00E-03    1.00E+03    kp    3.00E+00    0.00E+00    1
kpkx38_5    log    factor    1.00000000    1.00E-03    1.00E+03    kp    3.00E+00    0.00E+00    1
kpkx39_5    log    factor    1.00000000    1.00E-03    1.00E+03    kp    3.00E+00    0.00E+00    1
kpkx40_5    log    factor    1.00000000    1.00E-03    1.00E+03    kp    3.00E+00    0.00E+00    1
kpkx41_5    log    factor    1.00000000    1.00E-03    1.00E+03    kp    3.00E+00    0.00E+00    1
kpkx42_5    log    factor    1.00000000    1.00E-03    1.00E+03    kp    3.00E+00    0.00E+00    1
kpkx43_5    log    factor    1.00000000    1.00E-03    1.00E+03    kp    3.00E+00    0.00E+00    1
kpkx44_5    log    factor    1.00000000    1.00E-03    1.00E+03    kp    3.00E+00    0.00E+00    1
kpkx45_5    log    factor    1.00000000    1.00E-03    1.00E+03    kp    3.00E+00    0.00E+00    1
kpkx46_5    log    factor    1.00000000    1.00E-03    1.00E+03    kp    3.00E+00    0.00E+00    1
kpkx47_5    log    factor    1.00000000    1.00E-03    1.00E+03    kp    3.00E+00    0.00E+00    1
kpkx48_5    log    factor    1.00000000    1.00E-03    1.00E+03    kp    3.00E+00    0.00E+00    1
kpkx49_5    log    factor    1.00000000    1.00E-03    1.00E+03    kp    3.00E+00    0.00E+00    1
kpkx50_5    log    factor    1.00000000    1.00E-03    1.00E+03    kp    3.00E+00    0.00E+00    1
kpkx51_5    log    factor    1.00000000    1.00E-03    1.00E+03    kp    3.00E+00    0.00E+00    1
kpkx52_5    log    factor    1.00000000    1.00E-03    1.00E+03    kp    3.00E+00    0.00E+00    1
kpkx53_5    log    factor    1.00000000    1.00E-03    1.00E+03    kp    3.00E+00    0.00E+00    1
kpkx54_5    log    factor    1.00000000    1.00E-03    1.00E+03    kp    3.00E+00    0.00E+00    1
kpkx55_5    log    factor    1.00000000    1.00E-03    1.00E+03    kp    3.00E+00    0.00E+00    1
kpkx56_5    log    factor    1.00000000    1.00E-03    1.00E+03    kp    3.00E+00    0.00E+00    1
kpkx57_5    log    factor    1.00000000    1.00E-03    1.00E+03    kp    3.00E+00    0.00E+00    1
kpkx58_5    log    factor    1.00000000    1.00E-03    1.00E+03    kp    3.00E+00    0.00E+00    1
kpkx59_5    log    factor    1.00000000    1.00E-03    1.00E+03    kp    3.00E+00    0.00E+00    1
kpkx60_5    log    factor    1.00000000    1.00E-03    1.00E+03    kp    3.00E+00    0.00E+00    1
kpkx61_5    log    factor    1.00000000    1.00E-03    1.00E+03    kp    3.00E+00    0.00E+00    1
kpkx62_5    log    factor    1.00000000    1.00E-03    1.00E+03    kp    3.00E+00    0.00E+00    1
kpkx63_5    log    factor    1.00000000    1.00E-03    1.00E+03    kp    3.00E+00    0.00E+00    1
kpkx64_5    log    factor    1.00000000    1.00E-03    1.00E+03    kp    3.00E+00    0.00E+00    1
kpkx65_5    log    factor    1.00000000    1.00E-03    1.00E+03    kp    3.00E+00    0.00E+00    1
kpkx66_5    log    factor    1.00000000    1.00E-03    1.00E+03    kp    3.00E+00    0.00E+00    1
kpkx67_5    log    factor    1.00000000    1.00E-03    1.00E+03    kp    3.00E+00    0.00E+00    1
kpkx68_5    log    factor    1.00000000    1.00E-03    1.00E+03    kp    3.00E+00    0.00E+00    1
kpkx69_5    log    factor    1.00000000    1.00E-03    1.00E+03    kp    3.00E+00    0.00E+00    1
kpkx70_5    log    factor    1.00000000    1.00E-03    1.00E+03    kp    3.00E+00    0.00E+00    1
kpkx71_5    log    factor    1.00000000    1.00E-03    1.00E+03    kp    3.00E+00    0.00E+00    1
kpkx72_5    log    factor    1.00000000    1.00E-03    1.00E+03    kp    3.00E+00    0.00E+00    1
kpkx73_5    log    factor    1.00000000    1.00E-03    1.00E+03    kp    3.00E+00    0.00E+00    1
kpkx74_5    log    factor    1.00000000    1.00E-03    1.00E+03    kp    3.00E+00    0.00E+00    1
kpkx75_5    log    factor    1.00000000    1.00E-03    1.00E+03    kp    3.00E+00    0.00E+00    1
kpkx76_5    log    factor    1.00000000    1.00E-03    1.00E+03    kp    3.00E+00    0.00E+00    1
kpkx77_5    log    factor    1.00000000    1.00E-03    1.00E+03    kp    3.00E+00    0.00E+00    1
kpkx78_5    log    factor    1.00000000    1.00E-03    1.00E+03    kp    3.00E+00    0.00E+00    1
kpkx79_5    log    factor    1.00000000    1.00E-03    1.00E+03    kp    3.00E+00    0.00E+00    1
kpkx80_5    log    factor    1.00000000    1.00E-03    1.00E+03    kp    3.00E+00    0.00E+00    1
kpkx81_5    log    factor    1.00000000    1.00E-03    1.00E+03    kp    3.00E+00    0.00E+00    1
kpkx82_5    log    factor    1.00000000    1.00E-03    1.00E+03    kp    3.00E+00    0.00E+00    1
kpkx83_5    log    factor    1.00000000    1.00E-03    1.00E+03    kp    3.00E+00    0.00E+00    1
kpkx84_5    log    factor    1.00000000    1.00E-03    1.00E+03    kp    3.00E+00    0.00E+00    1
kpkx85_5    log    factor    1.00000000    1.00E-03    1.00E+03    kp    3.00E+00    0.00E+00    1
kpkx86_5    log    factor    1.00000000    1.00E-03    1.00E+03    kp    3.00E+00    0.00E+00    1
kpkx87_5    log    factor    1.00000000    1.00E-03    1.00E+03    kp    3.00E+00    0.00E+00    1
kpkx88_5    log    factor    1.00000000    1.00E-03    1.00E+03    kp    3.00E+00    0.00E+00    1
kpkx89_5    log    factor    1.00000000    1.00E-03    1.00E+03    kp    3.00E+00    0.00E+00    1
kpkx90_5    log    factor    1.00000000    1.00E-03    1.00E+03    kp    3.00E+00    0.00E+00    1
kpkx91_5    log    factor    1.00000000    1.00E-03    1.00E+03    kp    3.00E+00    0.00E+00    1
kpkx92_5    log    factor    1.00000000    1.00E-03    1.00E+03    kp    3.00E+00    0.00E+00    1
kpkx93_5    log    factor    1.00000000    1.00E-03    1.00E+03    kp    3.00E+00    0.00E+00    1
kpkx94_5    log    factor    1.00000000    1.00E-03    1.00E+03    kp    3.00E+00    0.00E+00    1
kpkx95_5    log    factor    1.00000000    1.00E-03    1.00E+03    kp    3.00E+00    0.00E+00    1
kpkx96_5    log    factor    1.00000000    1.00E-03    1.00E+03    kp    3.00E+00    0.00E+00    1
kpkx97_5    log    factor    1.00000000    1.00E-03    1.00E+03    kp    3.00E+00    0.00E+00    1
kpkx98_5    log    factor    1.00000000    1.00E-03    1.00E+03    kp    3.00E+00    0.00E+00    1
kpkx99_5    log    factor    1.00000000    1.00E-03    1.00E+03    kp    3.00E+00    0.00E+00    1
kpkx100_5    log    factor    1.00000000    1.00E-03    1.00E+03    kp    3.00E+00    0.00E+00    1
kpkx101_5    log    factor    1.00000000    1.00E-03    1.00E+03    kp    3.00E+00    0.00E+00    1
kpkx102_5    log    factor    1.00000000    1.00E-03    1.00E+03    kp    3.00E+00    0.00E+00    1
kpkx103_5    log    factor    1.00000000    1.00E-03    1.00E+03    kp    3.00E+00    0.00E+00    1
kpkx104_5    log    factor    1.00000000    1.00E-03    1.00E+03    kp    3.00E+00    0.00E+00    1
kpkx105_5    log    factor    1.00000000    1.00E-03    1.00E+03    kp    3.00E+00    0.00E+00    1
kpkx106_5    log    factor    1.00000000    1.00E-03    1.00E+03    kp    3.00E+00    0.00E+00    1
kpkx107_5    log    factor    1.00000000    1.00E-03    1.00E+03    kp    3.00E+00    0.00E+00    1