pcf
* control data
restart estimation
    601      75       2       0       3
      2      5     single  point  1   0   0
 10.0  2.0  0.3  0.03  10  999  lamforgive
 3.0  3.0  0.001
 0.1  noaui
 -1 0.005  4  4  0.001  4
 1  1  1
* singular value decomposition
1
75  1.0e-7
1  0  0
* parameter groups
 p     relative    0.01  0.0  switch  2.0 parabolic
 m     relative    0.01  0.0  switch  2.0 parabolic
* parameter data
mult1                     log                factor    1.594042E+00    2.500000E-01    2.500000E+00                     m    1.000000E+00    0.000000E+00          1
kr01c01                   log                factor    9.194539E+02    2.000000E+01    2.000000E+03                     p    1.000000E+00    0.000000E+00          1
kr01c02                   log                factor    6.141678E+01    2.000000E+01    2.000000E+03                     p    1.000000E+00    0.000000E+00          1
kr01c03                   log                factor    6.669270E+01    2.000000E+01    2.000000E+03                     p    1.000000E+00    0.000000E+00          1
kr01c04                   log                factor    5.171022E+02    2.000000E+01    2.000000E+03                     p    1.000000E+00    0.000000E+00          1
kr01c05                   log                factor    1.747291E+02    2.000000E+01    2.000000E+03                     p    1.000000E+00    0.000000E+00          1
kr01c06                   log                factor    5.308058E+02    2.000000E+01    2.000000E+03                     p    1.000000E+00    0.000000E+00          1
kr01c07                   log                factor    4.876400E+01    2.000000E+01    2.000000E+03                     p    1.000000E+00    0.000000E+00          1
kr01c08                   log                factor    1.164296E+03    2.000000E+01    2.000000E+03                     p    1.000000E+00    0.000000E+00          1
kr01c09                   log                factor    7.890801E+02    2.000000E+01    2.000000E+03                     p    1.000000E+00    0.000000E+00          1
kr01c10                   log                factor    1.145422E+02    2.000000E+01    2.000000E+03                     p    1.000000E+00    0.000000E+00          1
kr01c11                   log                factor    1.426274E+02    2.000000E+01    2.000000E+03                     p    1.000000E+00    0.000000E+00          1
kr01c12                   log                factor    2.512399E+02    2.000000E+01    2.000000E+03                     p    1.000000E+00    0.000000E+00          1
kr01c13                   log                factor    3.568438E+01    2.000000E+01    2.000000E+03                     p    1.000000E+00    0.000000E+00          1
kr01c14                   log                factor    1.700478E+02    2.000000E+01    2.000000E+03                     p    1.000000E+00    0.000000E+00          1
kr01c15                   log                factor    1.997671E+02    2.000000E+01    2.000000E+03                     p    1.000000E+00    0.000000E+00          1
kr01c16                   log                factor    2.327671E+02    2.000000E+01    2.000000E+03                     p    1.000000E+00    0.000000E+00          1
kr01c17                   log                factor    5.272458E+02    2.000000E+01    2.000000E+03                     p    1.000000E+00    0.000000E+00          1
kr01c18                   log                factor    7.067065E+01    2.000000E+01    2.000000E+03                     p    1.000000E+00    0.000000E+00          1
kr01c19                   log                factor    1.883783E+02    2.000000E+01    2.000000E+03                     p    1.000000E+00    0.000000E+00          1
kr01c20                   log                factor    1.652115E+02    2.000000E+01    2.000000E+03                     p    1.000000E+00    0.000000E+00          1
kr01c21                   log                factor    4.368823E+01    2.000000E+01    2.000000E+03                     p    1.000000E+00    0.000000E+00          1
kr01c22                   log                factor    2.505057E+02    2.000000E+01    2.000000E+03                     p    1.000000E+00    0.000000E+00          1
kr01c23                   log                factor    2.315026E+02    2.000000E+01    2.000000E+03                     p    1.000000E+00    0.000000E+00          1
kr01c24                   log                factor    2.545559E+02    2.000000E+01    2.000000E+03                     p    1.000000E+00    0.000000E+00          1
kr01c25                   log                factor    6.640568E+01    2.000000E+01    2.000000E+03                     p    1.000000E+00    0.000000E+00          1
kr01c26                   log                factor    1.964193E+02    2.000000E+01    2.000000E+03                     p    1.000000E+00    0.000000E+00          1
kr01c27                   log                factor    7.971383E+01    2.000000E+01    2.000000E+03                     p    1.000000E+00    0.000000E+00          1
kr01c28                   log                factor    7.919592E+02    2.000000E+01    2.000000E+03                     p    1.000000E+00    0.000000E+00          1
kr01c29                   log                factor    6.759335E+01    2.000000E+01    2.000000E+03                     p    1.000000E+00    0.000000E+00          1
kr01c30                   log                factor    6.251254E+02    2.000000E+01    2.000000E+03                     p    1.000000E+00    0.000000E+00          1
kr01c31                   log                factor    2.000000E+03    2.000000E+01    2.000000E+03                     p    1.000000E+00    0.000000E+00          1
kr01c32                   log                factor    8.848853E+01    2.000000E+01    2.000000E+03                     p    1.000000E+00    0.000000E+00          1
kr01c33                   log                factor    4.762180E+02    2.000000E+01    2.000000E+03                     p    1.000000E+00    0.000000E+00          1
kr01c34                   log                factor    6.293051E+01    2.000000E+01    2.000000E+03                     p    1.000000E+00    0.000000E+00          1
kr01c35                   log                factor    9.493774E+01    2.000000E+01    2.000000E+03                     p    1.000000E+00    0.000000E+00          1
kr01c36                   log                factor    5.208341E+02    2.000000E+01    2.000000E+03                     p    1.000000E+00    0.000000E+00          1
kr01c37                   log                factor    7.032835E+01    2.000000E+01    2.000000E+03                     p    1.000000E+00    0.000000E+00          1
kr01c38                   log                factor    1.883205E+02    2.000000E+01    2.000000E+03                     p    1.000000E+00    0.000000E+00          1
kr01c39                   log                factor    2.938606E+02    2.000000E+01    2.000000E+03                     p    1.000000E+00    0.000000E+00          1
kr01c40                   log                factor    7.219568E+02    2.000000E+01    2.000000E+03                     p    1.000000E+00    0.000000E+00          1
kr01c41                   log                factor    2.356033E+02    2.000000E+01    2.000000E+03                     p    1.000000E+00    0.000000E+00          1
kr01c42                   log                factor    2.939205E+01    2.000000E+01    2.000000E+03                     p    1.000000E+00    0.000000E+00          1
kr01c43                   log                factor    2.680079E+02    2.000000E+01    2.000000E+03                     p    1.000000E+00    0.000000E+00          1
kr01c44                   log                factor    2.018857E+02    2.000000E+01    2.000000E+03                     p    1.000000E+00    0.000000E+00          1
kr01c45                   log                factor    1.426072E+03    2.000000E+01    2.000000E+03                     p    1.000000E+00    0.000000E+00          1
kr01c46                   log                factor    5.015182E+01    2.000000E+01    2.000000E+03                     p    1.000000E+00    0.000000E+00          1
kr01c47                   log                factor    5.074026E+02    2.000000E+01    2.000000E+03                     p    1.000000E+00    0.000000E+00          1
kr01c48                   log                factor    1.029995E+02    2.000000E+01    2.000000E+03                     p    1.000000E+00    0.000000E+00          1
kr01c49                   log                factor    2.960697E+02    2.000000E+01    2.000000E+03                     p    1.000000E+00    0.000000E+00          1
kr01c50                   log                factor    1.382917E+03    2.000000E+01    2.000000E+03                     p    1.000000E+00    0.000000E+00          1
kr01c51                   log                factor    6.571138E+01    2.000000E+01    2.000000E+03                     p    1.000000E+00    0.000000E+00          1
kr01c52                   log                factor    2.061838E+02    2.000000E+01    2.000000E+03                     p    1.000000E+00    0.000000E+00          1
kr01c53                   log                factor    4.978211E+01    2.000000E+01    2.000000E+03                     p    1.000000E+00    0.000000E+00          1
kr01c54                   log                factor    9.431926E+02    2.000000E+01    2.000000E+03                     p    1.000000E+00    0.000000E+00          1
kr01c55                   log                factor    2.116303E+02    2.000000E+01    2.000000E+03                     p    1.000000E+00    0.000000E+00          1
kr01c56                   log                factor    7.607337E+01    2.000000E+01    2.000000E+03                     p    1.000000E+00    0.000000E+00          1
kr01c57                   log                factor    6.720343E+02    2.000000E+01    2.000000E+03                     p    1.000000E+00    0.000000E+00          1
kr01c58                   log                factor    1.306352E+03    2.000000E+01    2.000000E+03                     p    1.000000E+00    0.000000E+00          1
kr01c59                   log                factor    2.000000E+03    2.000000E+01    2.000000E+03                     p    1.000000E+00    0.000000E+00          1
kr01c60                   log                factor    3.660445E+02    2.000000E+01    2.000000E+03                     p    1.000000E+00    0.000000E+00          1
kr02c01                   log                factor    6.717636E+01    2.000000E+01    2.000000E+03                     p    1.000000E+00    0.000000E+00          1
kr02c02                   log                factor    1.614249E+02    2.000000E+01    2.000000E+03                     p    1.000000E+00    0.000000E+00          1
kr02c03                   log                factor    6.327348E+02    2.000000E+01    2.000000E+03                     p    1.000000E+00    0.000000E+00          1
kr02c04                   log                factor    1.544697E+02    2.000000E+01    2.000000E+03                     p    1.000000E+00    0.000000E+00          1
kr02c05                   log                factor    9.118323E+02    2.000000E+01    2.000000E+03                     p    1.000000E+00    0.000000E+00          1
kr02c06                   log                factor    7.442548E+02    2.000000E+01    2.000000E+03                     p    1.000000E+00    0.000000E+00          1
kr02c07                   log                factor    3.935452E+02    2.000000E+01    2.000000E+03                     p    1.000000E+00    0.000000E+00          1
kr02c08                   log                factor    4.956453E+01    2.000000E+01    2.000000E+03                     p    1.000000E+00    0.000000E+00          1
kr02c09                   log                factor    2.000000E+03    2.000000E+01    2.000000E+03                     p    1.000000E+00    0.000000E+00          1
kr02c10                   log                factor    2.000000E+03    2.000000E+01    2.000000E+03                     p    1.000000E+00    0.000000E+00          1
kr02c11                   log                factor    1.758763E+02    2.000000E+01    2.000000E+03                     p    1.000000E+00    0.000000E+00          1
kr02c12                   log                factor    8.557938E+02    2.000000E+01    2.000000E+03                     p    1.000000E+00    0.000000E+00          1
kr02c13                   log                factor    6.584261E+01    2.000000E+01    2.000000E+03                     p    1.000000E+00    0.000000E+00          1
kr02c14                   log                factor    1.571349E+02    2.000000E+01    2.000000E+03                     p    1.000000E+00    0.000000E+00          1
kr02c15                   log                factor    6.573729E+02    2.000000E+01    2.000000E+03                     p    1.000000E+00    0.000000E+00          1
kr02c16                   log                factor    2.487332E+02    2.000000E+01    2.000000E+03                     p    1.000000E+00    0.000000E+00          1
kr02c17                   log                factor    1.730679E+03    2.000000E+01    2.000000E+03                     p    1.000000E+00    0.000000E+00          1
kr02c18                   log                factor    2.812876E+01    2.000000E+01    2.000000E+03                     p    1.000000E+00    0.000000E+00          1
kr02c19                   log                factor    2.034342E+01    2.000000E+01    2.000000E+03                     p    1.000000E+00    0.000000E+00          1
kr02c20                   log                factor    2.054000E+02    2.000000E+01    2.000000E+03                     p    1.000000E+00    0.000000E+00          1
kr02c21                   log                factor    3.747005E+02    2.000000E+01    2.000000E+03                     p    1.000000E+00    0.000000E+00          1
kr02c22                   log                factor    5.850089E+01    2.000000E+01    2.000000E+03                     p    1.000000E+00    0.000000E+00          1
kr02c23                   log                factor    6.156582E+02    2.000000E+01    2.000000E+03                     p    1.000000E+00    0.000000E+00          1
kr02c24                   log                factor    9.222094E+01    2.000000E+01    2.000000E+03                     p    1.000000E+00    0.000000E+00          1
kr02c25                   log                factor    6.587080E+01    2.000000E+01    2.000000E+03                     p    1.000000E+00    0.000000E+00          1
kr02c26                   log                factor    1.361232E+03    2.000000E+01    2.000000E+03                     p    1.000000E+00    0.000000E+00          1
kr02c27                   log                factor    4.528380E+02    2.000000E+01    2.000000E+03                     p    1.000000E+00    0.000000E+00          1
kr02c28                   log                factor    7.002029E+02    2.000000E+01    2.000000E+03                     p    1.000000E+00    0.000000E+00          1
kr02c29                   log                factor    9.258190E+01    2.000000E+01    2.000000E+03                     p    1.000000E+00    0.000000E+00          1
kr02c30                   log                factor    3.726143E+01    2.000000E+01    2.000000E+03                     p    1.000000E+00    0.000000E+00          1
kr02c31                   log                factor    1.772226E+02    2.000000E+01    2.000000E+03                     p    1.000000E+00    0.000000E+00          1
kr02c32                   log                factor    3.079514E+02    2.000000E+01    2.000000E+03                     p    1.000000E+00    0.000000E+00          1
kr02c33                   log                factor    2.000000E+03    2.000000E+01    2.000000E+03                     p    1.000000E+00    0.000000E+00          1
kr02c34                   log                factor    2.423428E+02    2.000000E+01    2.000000E+03                     p    1.000000E+00    0.000000E+00          1
kr02c35                   log                factor    4.646709E+01    2.000000E+01    2.000000E+03                     p    1.000000E+00    0.000000E+00          1
kr02c36                   log                factor    1.745610E+03    2.000000E+01    2.000000E+03                     p    1.000000E+00    0.000000E+00          1
kr02c37                   log                factor    1.854393E+02    2.000000E+01    2.000000E+03                     p    1.000000E+00    0.000000E+00          1
kr02c38                   log                factor    1.656733E+02    2.000000E+01    2.000000E+03                     p    1.000000E+00    0.000000E+00          1
kr02c39                   log                factor    1.094446E+03    2.000000E+01    2.000000E+03                     p    1.000000E+00    0.000000E+00          1
kr02c40                   log                factor    2.000000E+03    2.000000E+01    2.000000E+03                     p    1.000000E+00    0.000000E+00          1
kr02c41                   log                factor    3.907759E+02    2.000000E+01    2.000000E+03                     p    1.000000E+00    0.000000E+00          1
kr02c42                   log                factor    2.000000E+03    2.000000E+01    2.000000E+03                     p    1.000000E+00    0.000000E+00          1
kr02c43                   log                factor    1.621088E+02    2.000000E+01    2.000000E+03                     p    1.000000E+00    0.000000E+00          1
kr02c44                   log                factor    2.697148E+01    2.000000E+01    2.000000E+03                     p    1.000000E+00    0.000000E+00          1
kr02c45                   log                factor    1.535339E+02    2.000000E+01    2.000000E+03                     p    1.000000E+00    0.000000E+00          1
kr02c46                   log                factor    1.460207E+02    2.000000E+01    2.000000E+03                     p    1.000000E+00    0.000000E+00          1
kr02c47                   log                factor    8.997163E+01    2.000000E+01    2.000000E+03                     p    1.000000E+00    0.000000E+00          1
kr02c48                   log                factor    6.471829E+02    2.000000E+01    2.000000E+03                     p    1.000000E+00    0.000000E+00          1
kr02c49                   log                factor    8.175631E+01    2.000000E+01    2.000000E+03                     p    1.000000E+00    0.000000E+00          1
kr02c50                   log                factor    3.027333E+02    2.000000E+01    2.000000E+03                     p    1.000000E+00    0.000000E+00          1
kr02c51                   log                factor    1.650209E+03    2.000000E+01    2.000000E+03                     p    1.000000E+00    0.000000E+00          1
kr02c52                   log                factor    9.670317E+02    2.000000E+01    2.000000E+03                     p    1.000000E+00    0.000000E+00          1
kr02c53                   log                factor    2.785242E+02    2.000000E+01    2.000000E+03                     p    1.000000E+00    0.000000E+00          1
kr02c54                   log                factor    1.622358E+02    2.000000E+01    2.000000E+03                     p    1.000000E+00    0.000000E+00          1
kr02c55                   log                factor    2.316686E+01    2.000000E+01    2.000000E+03                     p    1.000000E+00    0.000000E+00          1
kr02c56                   log                factor    3.085988E+02    2.000000E+01    2.000000E+03                     p    1.000000E+00    0.000000E+00          1
kr02c57                   log                factor    2.819892E+02    2.000000E+01    2.000000E+03                     p    1.000000E+00    0.000000E+00          1
kr02c58                   log                factor    3.590834E+02    2.000000E+01    2.000000E+03                     p    1.000000E+00    0.000000E+00          1
kr02c59                   log                factor    6.130528E+01    2.000000E+01    2.000000E+03                     p    1.000000E+00    0.000000E+00          1
kr02c60                   log                factor    4.205735E+01    2.000000E+01    2.000000E+03                     p    1.000000E+00    0.000000E+00          1
kr03c01                   log                factor    3.729608E+01    2.000000E+01    2.000000E+03                     p    1.000000E+00    0.000000E+00          1
kr03c02                   log                factor    7.128966E+01    2.000000E+01    2.000000E+03                     p    1.000000E+00    0.000000E+00          1
kr03c03                   log                factor    7.593380E+01    2.000000E+01    2.000000E+03                     p    1.000000E+00    0.000000E+00          1
kr03c04                   log                factor    6.703625E+02    2.000000E+01    2.000000E+03                     p    1.000000E+00    0.000000E+00          1
kr03c05                   log                factor    3.495636E+02    2.000000E+01    2.000000E+03                     p    1.000000E+00    0.000000E+00          1
kr03c06                   log                factor    2.000000E+03    2.000000E+01    2.000000E+03                     p    1.000000E+00    0.000000E+00          1
kr03c07                   log                factor    9.968798E+02    2.000000E+01    2.000000E+03                     p    1.000000E+00    0.000000E+00          1
kr03c08                   log                factor    7.113217E+01    2.000000E+01    2.000000E+03                     p    1.000000E+00    0.000000E+00          1
kr03c09                   log                factor    3.947969E+02    2.000000E+01    2.000000E+03                     p    1.000000E+00    0.000000E+00          1
kr03c10                   log                factor    5.023990E+02    2.000000E+01    2.000000E+03                     p    1.000000E+00    0.000000E+00          1
kr03c11                   log                factor    1.654231E+02    2.000000E+01    2.000000E+03                     p    1.000000E+00    0.000000E+00          1
kr03c12                   log                factor    8.373827E+01    2.000000E+01    2.000000E+03                     p    1.000000E+00    0.000000E+00          1
kr03c13                   log                factor    2.980359E+02    2.000000E+01    2.000000E+03                     p    1.000000E+00    0.000000E+00          1
kr03c14                   log                factor    4.751631E+01    2.000000E+01    2.000000E+03                     p    1.000000E+00    0.000000E+00          1
kr03c15                   log                factor    2.000000E+03    2.000000E+01    2.000000E+03                     p    1.000000E+00    0.000000E+00          1
kr03c16                   log                factor    2.967213E+02    2.000000E+01    2.000000E+03                     p    1.000000E+00    0.000000E+00          1
kr03c17                   log                factor    1.226113E+03    2.000000E+01    2.000000E+03                     p    1.000000E+00    0.000000E+00          1
kr03c18                   log                factor    4.908131E+02    2.000000E+01    2.000000E+03                     p    1.000000E+00    0.000000E+00          1
kr03c19                   log                factor    4.858938E+02    2.000000E+01    2.000000E+03                     p    1.000000E+00    0.000000E+00          1
kr03c20                   log                factor    4.878516E+02    2.000000E+01    2.000000E+03                     p    1.000000E+00    0.000000E+00          1
kr03c21                   log                factor    1.626270E+02    2.000000E+01    2.000000E+03                     p    1.000000E+00    0.000000E+00          1
kr03c22                   log                factor    5.310576E+02    2.000000E+01    2.000000E+03                     p    1.000000E+00    0.000000E+00          1
kr03c23                   log                factor    1.296272E+02    2.000000E+01    2.000000E+03                     p    1.000000E+00    0.000000E+00          1
kr03c24                   log                factor    2.913945E+02    2.000000E+01    2.000000E+03                     p    1.000000E+00    0.000000E+00          1
kr03c25                   log                factor    4.950425E+02    2.000000E+01    2.000000E+03                     p    1.000000E+00    0.000000E+00          1
kr03c26                   log                factor    2.325887E+01    2.000000E+01    2.000000E+03                     p    1.000000E+00    0.000000E+00          1
kr03c27                   log                factor    9.038660E+01    2.000000E+01    2.000000E+03                     p    1.000000E+00    0.000000E+00          1
kr03c28                   log                factor    1.246719E+02    2.000000E+01    2.000000E+03                     p    1.000000E+00    0.000000E+00          1
kr03c29                   log                factor    8.129159E+02    2.000000E+01    2.000000E+03                     p    1.000000E+00    0.000000E+00          1
kr03c30                   log                factor    1.524130E+03    2.000000E+01    2.000000E+03                     p    1.000000E+00    0.000000E+00          1
kr03c31                   log                factor    3.174754E+02    2.000000E+01    2.000000E+03                     p    1.000000E+00    0.000000E+00          1
kr03c32                   log                factor    5.241352E+02    2.000000E+01    2.000000E+03                     p    1.000000E+00    0.000000E+00          1
kr03c33                   log                factor    5.194468E+01    2.000000E+01    2.000000E+03                     p    1.000000E+00    0.000000E+00          1
kr03c34                   log                factor    4.643333E+02    2.000000E+01    2.000000E+03                     p    1.000000E+00    0.000000E+00          1
kr03c35                   log                factor    5.089998E+02    2.000000E+01    2.000000E+03                     p    1.000000E+00    0.000000E+00          1
kr03c36                   log                factor    8.190138E+01    2.000000E+01    2.000000E+03                     p    1.000000E+00    0.000000E+00          1
kr03c37                   log                factor    3.721054E+01    2.000000E+01    2.000000E+03                     p    1.000000E+00    0.000000E+00          1
kr03c38                   log                factor    1.534715E+02    2.000000E+01    2.000000E+03                     p    1.000000E+00    0.000000E+00          1
kr03c39                   log                factor    1.354415E+02    2.000000E+01    2.000000E+03                     p    1.000000E+00    0.000000E+00          1
kr03c40                   log                factor    1.321740E+02    2.000000E+01    2.000000E+03                     p    1.000000E+00    0.000000E+00          1
kr03c41                   log                factor    5.101602E+02    2.000000E+01    2.000000E+03                     p    1.000000E+00    0.000000E+00          1
kr03c42                   log                factor    6.358194E+01    2.000000E+01    2.000000E+03                     p    1.000000E+00    0.000000E+00          1
kr03c43                   log                factor    1.229777E+02    2.000000E+01    2.000000E+03                     p    1.000000E+00    0.000000E+00          1
kr03c44                   log                factor    2.516514E+01    2.000000E+01    2.000000E+03                     p    1.000000E+00    0.000000E+00          1
kr03c45                   log                factor    3.264027E+02    2.000000E+01    2.000000E+03                     p    1.000000E+00    0.000000E+00          1
kr03c46                   log                factor    5.663448E+02    2.000000E+01    2.000000E+03                     p    1.000000E+00    0.000000E+00          1
kr03c47                   log                factor    1.117520E+02    2.000000E+01    2.000000E+03                     p    1.000000E+00    0.000000E+00          1
kr03c48                   log                factor    2.508949E+02    2.000000E+01    2.000000E+03                     p    1.000000E+00    0.000000E+00          1
kr03c49                   log                factor    2.465410E+02    2.000000E+01    2.000000E+03                     p    1.000000E+00    0.000000E+00          1
kr03c50                   log                factor    2.513342E+01    2.000000E+01    2.000000E+03                     p    1.000000E+00    0.000000E+00          1
kr03c51                   log                factor    2.305258E+02    2.000000E+01    2.000000E+03                     p    1.000000E+00    0.000000E+00          1
kr03c52                   log                factor    1.952856E+02    2.000000E+01    2.000000E+03                     p    1.000000E+00    0.000000E+00          1
kr03c53                   log                factor    7.323904E+02    2.000000E+01    2.000000E+03                     p    1.000000E+00    0.000000E+00          1
kr03c54                   log                factor    7.427530E+02    2.000000E+01    2.000000E+03                     p    1.000000E+00    0.000000E+00          1
kr03c55                   log                factor    2.441537E+02    2.000000E+01    2.000000E+03                     p    1.000000E+00    0.000000E+00          1
kr03c56                   log                factor    3.861988E+01    2.000000E+01    2.000000E+03                     p    1.000000E+00    0.000000E+00          1
kr03c57                   log                factor    6.203628E+02    2.000000E+01    2.000000E+03                     p    1.000000E+00    0.000000E+00          1
kr03c58                   log                factor    2.662520E+02    2.000000E+01    2.000000E+03                     p    1.000000E+00    0.000000E+00          1