pcf
* control data
restart estimation
    2626     717       8       0      17
43  8  single  point  1  0  0
20.000       -3.0000      0.3  0.03  -12     999  lamforgive
5.000000e+000  5.000000e+000  1.000000e-003
1.000000e-001 1 noaui
-1  1.000000e-002  3  3  1.000000e-002  3
1    1    1   1  nojcosaveitn reisaveitn parsaveitn
* singular value decomposition
1
500  5.0000000E-07
0
* parameter groups
kx           relative   1.000000e-002  0.000000e+000  always_3  2.000000e+000  parabolic
kz           relative   1.000000e-002  0.000000e+000  always_3  2.000000e+000  parabolic
kp           relative   1.000000e-002  0.000000e+000  switch    2.000000e+000  parabolic
kp_tguess    relative   1.000000e-002  0.000000e+000  switch    2.000000e+000  parabolic
rch_mult     relative   1.000000e-002  0.000000e+000  always_3  2.000000e+000  parabolic
lkbed_mult   relative   1.000000e-002  0.000000e+000  always_3  2.000000e+000  parabolic
streambed_kv relative   1.000000e-002  0.000000e+000  always_3  2.000000e+000  parabolic
aniso        relative   1.000000e-002  0.050000e+000  switch    2.000000e+000  parabolic
* parameter data
rch_unglaci    log     factor   0.8481339      2.50e-01    3.00e+00        rch_mult           1       0       1
rch_glacial    log     factor   0.8327236      2.50e-01    3.00e+00        rch_mult           1       0       1
gl_kv          log     factor    15.00000      2.50e-01    1.50e+01        streambed_kv       1       0       1
ungl_kv        log     factor    1.926997      2.50e-01    5.00e+01        streambed_kv       1       0       1
sprg_kv        fixed   factor    40.00000      2.50e-01    7.00e+01        streambed_kv       1       0       1
lkmendot       log     factor    1.254676      1.00e-03    1.00e+02        lkbed_mult         1       0       1
lkmonona       log     factor   0.8639565      1.00e-03    1.00e+02        lkbed_mult         1       0       1
lkwingra       log     factor   0.7410429      1.00e-03    1.00e+02        lkbed_mult         1       0       1
lkwaubes       log     factor    2.153332      1.00e-03    1.00e+02        lkbed_mult         1       0       1
lkkegons       log     factor   0.9719989      1.00e-03    1.00e+02        lkbed_mult         1       0       1
fishlake       fixed   factor    1.000000      1.00e-03    1.20e+00        lkbed_mult         1       0       1
crystllk       fixed   factor    1.000000      1.00e-03    1.20e+00        lkbed_mult         1       0       1
kppdc_stp      log     factor    13.71383      1          20        kp                 1       0       1
kzpdc_stp      log     factor   0.1000000      1.00e-01    2.00e+01        kz                 1       0       1
kpjordan       log     factor   0.3158969      0.3          30        kp                 1       0       1
kzjordan       log     factor   1.0000000E-02  1.00e-02    1.00e+01        kz                 1       0       1
kpstlaw        log     factor    60.00000      1          60        kp                 1       0       1
kzstlaw        log     factor   1.0000000E-02  1.00e-02    1.00e+01        kz                 1       0       1
kpuptc         fixed   factor    1.000000      1          10        kp                 1       0       1
kzuptc         fixed   factor   0.5000000      1.00e-02    1.00e+01        kz                 1       0       1
kzhitc         log     factor    9.362469      1.00e-02    1.50e+02        kz                 1       0       1
kztc_lay7w     log     factor   0.5604667      1.00e-03    1.00e+02        kz                 1       0       1
kplowtc        log     factor    1.000000      1           5        kp                 1       0       1
tckhkvratio    log     factor    2.000000      2       10000        aniso              1       0       1
kzwon          fixed   factor    1.000000      1.00e-02    1.00e+01        kz                 1       0       1
kzhiwon        log     factor    13.42752      1.00e-02    1.00e+02        kz                 1       0       1
kzwon_lay10w   log     factor   0.1440237      1.00e-03    1.00e+02        kz                 1       0       1
kpec           log     factor   1.4894432E-02  1.00e-04    1.00e+01        kp                 1       0       1
kx2            fixed   factor    10.00000      1.00e+00    1.00e+02        kx                 1       0       1
kz2            fixed   factor    1.000000      1.00e-03    1.00e+01        kz                 1       0       1
kx10           log     factor    20.00000      2.00e+01    3.00e+02        kx                 1       0       1
kx10ani        log     factor    7.762897      1.00e+00    1.00e+02        aniso              1       0       1
kx11           log     factor    5.000000      1.00e-02    5.00e+00        kx                 1       0       1
kx11ani        log     factor    1.000000      1.00e+00    1.00e+02        aniso              1       0       1
kx12           log     factor    21.74487      2.00e+00    2.00e+02        kx                 1       0       1
kx12ani        log     factor    1.000000      1.00e+00    1.00e+02        aniso              1       0       1
kx13           log     factor    10.00000      1.00e-01    1.00e+01        kx                 1       0       1
kx13ani        log     factor    7.107224      1.00e+00    1.00e+02        aniso              1       0       1
kx14           log     factor   0.5000000      5.00e-01    5.00e+01        kx                 1       0       1
kx14ani        log     factor    100.0000      1.00e+00    1.00e+02        aniso              1       0       1
kx15           log     factor   0.1000000      1.00e-01    1.00e+01        kx                 1       0       1
kx15ani        log     factor    100.0000      1.00e+00    1.00e+02        aniso              1       0       1
kx16           log     factor    300.0000      3.00e+00    6.00e+02        kx                 1       0       1
kx16ani        log     factor    2.000000      1.00e+00    1.00e+02        aniso              1       0       1
kx17           log     factor    150.0000      4.00e+00    4.00e+02        kx                 1       0       1
kx17ani        log     factor    2.000000      1.00e+00    1.00e+02        aniso              1       0       1
kx18           log     factor    2250.186      2.00e+00    2.00e+04        kx                 1       0       1
kz18           log     factor    4717.106      2.00e+00    2.00e+04        kz                 1       0       1
kx19           log     factor    1878.600      2.00e+00    2.00e+04        kx                 1       0       1
kz19           log     factor    1082.992      2.00e+00    2.00e+04        kz                 1       0       1
kx20           log     factor    2310.142      2.00e+00    2.00e+04        kx                 1       0       1
kz20           log     factor    2089.695      2.00e+00    2.00e+04        kz                 1       0       1
kx21           log     factor    2.000000      2.00e+00    2.00e+03        kx                 1       0       1
kz21           log     factor    2.000000      2.00e+00    2.00e+04        kz                 1       0       1
kx22           log     factor    1991.868      2.00e+00    2.00e+04        kx                 1       0       1
kz22           log     factor    2497.322      2.00e+00    2.00e+04        kz                 1       0       1
kx23           log     factor    2917.417      2.00e+00    2.00e+04        kx                 1       0       1
kz23           log     factor    2303.310      2.00e+00    2.00e+04        kz                 1       0       1
kx24           log     factor    2291.115      2.00e+00    2.00e+04        kx                 1       0       1
kz24           log     factor    2139.308      2.00e+00    2.00e+04        kz                 1       0       1
kx25           log     factor    1938.875      2.00e+00    2.00e+04        kx                 1       0       1
kz25           log     factor    2720.702      2.00e+00    2.00e+04        kz                 1       0       1
kx26           log     factor    104.8704      2.00e+00    2.00e+04        kx                 1       0       1
kz26           log     factor    15.64644      2.00e+00    2.00e+04        kz                 1       0       1
kplay7e_2      log     factor    107.0331      1        1000        kp                 1       0       1
kplay7e_3      log     factor    111.7695      1        1000        kp                 1       0       1
kplay7e_4      log     factor    91.28205      1        1000        kp                 1       0       1
kplay7e_5      log     factor    67.59765      1        1000        kp                 1       0       1
kplay7e_6      log     factor    109.6473      1        1000        kp                 1       0       1
kplay7e_7      log     factor    109.1260      1        1000        kp                 1       0       1
kplay7e_8      log     factor    95.18182      1        1000        kp                 1       0       1
kplay7e_9      log     factor    75.41287      1        1000        kp                 1       0       1
kplay7e_10     log     factor    120.6728      1        1000        kp                 1       0       1
kplay7e_11     log     factor    74.86178      1        1000        kp                 1       0       1
kplay7e_12     log     factor    95.08185      1        1000        kp                 1       0       1
kplay7e_13     log     factor    158.1203      1        1000        kp                 1       0       1
kplay7e_14     log     factor    95.07564      1        1000        kp                 1       0       1
kplay7e_15     log     factor    68.37907      1        1000        kp                 1       0       1
kplay7e_16     log     factor    127.7253      1        1000        kp                 1       0       1
kplay7e_17     log     factor    117.3116      1        1000        kp                 1       0       1
kplay7e_18     log     factor    116.3829      1        1000        kp                 1       0       1
kplay7e_19     log     factor    172.8185      1        1000        kp                 1       0       1
kplay7e_20     log     factor    202.9417      1        1000        kp                 1       0       1
kplay7e_21     log     factor    121.1937      1        1000        kp                 1       0       1
kplay7e_22     log     factor    127.9641      1        1000        kp                 1       0       1
kplay7e_24     log     factor    103.5623      1        1000        kp                 1       0       1
kplay7e_25     log     factor    105.9125      1        1000        kp                 1       0       1
kplay7e_26     log     factor    114.2327      1        1000        kp                 1       0       1
kplay7e_27     log     factor    141.0358      1        1000        kp                 1       0       1
kplay7e_28     log     factor    61.41678      1        1000        kp                 1       0       1
kplay7e_29     log     factor    122.4935      1        1000        kp                 1       0       1
kplay7e_30     log     factor    94.71341      1        1000        kp                 1       0       1
kplay7e_31     log     factor    168.8923      1        1000        kp                 1       0       1
kplay7e_32     log     factor    46.57824      1        1000        kp                 1       0       1
kplay7e_33     log     factor    63.77168      1        1000        kp                 1       0       1
kplay7e_35     log     factor    123.3685      1        1000        kp                 1       0       1
kplay7e_36     log     factor    114.8132      1        1000        kp                 1       0       1
kplay7e_37     log     factor    324.8516      1        1000        kp                 1       0       1
kplay7e_38     log     factor    127.4806      1        1000        kp                 1       0       1
kplay7e_39     log     factor    118.4963      1        1000        kp                 1       0       1
kplay7e_40     log     factor    80.61433      1        1000        kp                 1       0       1
kplay7e_41     log     factor    82.30520      1        1000        kp                 1       0       1
kplay7e_42     log     factor    118.8403      1        1000        kp                 1       0       1
kplay7e_43     log     factor    87.20235      1        1000        kp                 1       0       1
kplay7e_44     log     factor    94.92205      1        1000        kp                 1       0       1
kplay7e_34     log     factor    62.98397      1        1000        kp                 1       0       1
kplay7e_50     log     factor    104.6705      1        1000        kp                 1       0       1
kplay7e_51     log     factor    19.70339      1        1000        kp                 1       0       1
kplay7e_52     log     factor    79.35329      1        1000        kp                 1       0       1
kplay7e_53     log     factor    112.7346      1        1000        kp                 1       0       1
kplay7e_54     log     factor    128.9831      1        1000        kp                 1       0       1
kplay7e_55     log     factor    46.90926      1        1000        kp                 1       0       1
kplay7e_56     log     factor    49.21436      1        1000        kp                 1       0       1
kplay7e_57     log     factor    141.1740      1        1000        kp                 1       0       1
kplay7e_58     log     factor    185.8578      1        1000        kp                 1       0       1
kplay7e_59     log     factor    41.28218      1        1000        kp                 1       0       1
kplay7e_60     log     factor    84.46615      1        1000        kp                 1       0       1
kplay7e_61     log     factor    54.26971      1        1000        kp                 1       0       1
kplay7e_62     log     factor    105.0378      1        1000        kp                 1       0       1
kplay7e_63     log     factor    143.7657      1        1000        kp                 1       0       1
kplay7e_64     log     factor    81.64104      1        1000        kp                 1       0       1
kplay7e_65     log     factor    123.1283      1        1000        kp                 1       0       1
kplay7e_66     log     factor    104.8529      1        1000        kp                 1       0       1
kplay7e_67     log     factor    60.82418      1        1000        kp                 1       0       1
kplay7e_68     log     factor    134.3565      1        1000        kp                 1       0       1
kplay7e_69     log     factor    164.8296      1        1000        kp                 1       0       1
kplay7e_49     log     factor    99.34633      1        1000        kp                 1       0       1
kplay7e_80     log     factor    163.2587      1        1000        kp                 1       0       1
kplay7e_84     log     factor    100.2843      1        1000        kp                 1       0       1
kplay7e_75     log     factor    129.6642      1        1000        kp                 1       0       1
kplay7e_76     log     factor    91.56141      1        1000        kp                 1       0       1
kplay7e_77     log     factor    126.9125      1        1000        kp                 1       0       1
kplay7e_78     log     factor    88.14440      1        1000        kp                 1       0       1
kplay7e_79     log     factor    117.8552      1        1000        kp                 1       0       1
kplay7e_81     log     factor    133.6553      1        1000        kp                 1       0       1
kplay7e_82     log     factor    89.11410      1        1000        kp                 1       0       1
kplay7e_83     log     factor    260.8521      1        1000        kp                 1       0       1
kplay7e_85     log     factor    83.27035      1        1000        kp                 1       0       1
kplay7e_86     log     factor    178.8284      1        1000        kp                 1       0       1
kplay7e_87     log     factor    109.2892      1        1000        kp                 1       0       1
kplay7e_88     log     factor    98.30007      1        1000        kp                 1       0       1
kplay7e_89     log     factor    78.43353      1        1000        kp                 1       0       1
kplay7e_90     log     factor    116.4702      1        1000        kp                 1       0       1
kplay7e_91     log     factor    184.9474      1        1000        kp                 1       0       1
kplay7e_92     log     factor    139.6517      1        1000        kp                 1       0       1
kplay7e_93     log     factor    89.36111      1        1000        kp                 1       0       1
kplay7e_94     log     factor    42.73266      1        1000        kp                 1       0       1
kplay7e_99     log     factor    101.2107      1        1000        kp                 1       0       1
kplay7e_100    log     factor    96.64683      1        1000        kp                 1       0       1
kplay7e_101    log     factor    85.76760      1        1000        kp                 1       0       1
kplay7e_102    log     factor    114.5586      1        1000        kp                 1       0       1
kplay7e_103    log     factor    79.35363      1        1000        kp                 1       0       1
kplay7e_104    log     factor    127.4463      1        1000        kp                 1       0       1
kplay7e_105    log     factor    105.2933      1        1000        kp                 1       0       1
kplay7e_106    log     factor    110.5426      1        1000        kp                 1       0       1
kplay7e_107    log     factor    46.68099      1        1000        kp                 1       0       1
kplay7e_108    log     factor    61.95273      1        1000        kp                 1       0       1
kplay7e_109    log     factor    110.3745      1        1000        kp                 1       0       1
kplay7e_110    log     factor    149.9353      1        1000        kp                 1       0       1
kplay7e_111    log     factor    70.43741      1        1000        kp                 1       0       1
kplay7e_112    log     factor    104.5774      1        1000        kp                 1       0       1
kplay7e_113    log     factor    67.13344      1        1000        kp                 1       0       1
kplay7e_114    log     factor    93.13374      1        1000        kp                 1       0       1
kplay7e_115    log     factor    94.67734      1        1000        kp                 1       0       1
kplay7e_116    log     factor    201.0052      1        1000        kp                 1       0       1
kplay7e_117    log     factor    89.99293      1        1000        kp                 1       0       1
kplay7e_118    log     factor    152.5948      1        1000        kp                 1       0       1
kplay7e_119    log     factor    62.18033      1        1000        kp                 1       0       1
kplay7e_124    log     factor    93.45967      1        1000        kp                 1       0       1
kplay7e_125    log     factor    86.80845      1        1000        kp                 1       0       1
kplay7e_126    log     factor    74.54963      1        1000        kp                 1       0       1
kplay7e_127    log     factor    127.9423      1        1000        kp                 1       0       1
kplay7e_128    log     factor    167.8736      1        1000        kp                 1       0       1
kplay7e_129    log     factor    89.69595      1        1000        kp                 1       0       1
kplay7e_130    log     factor    110.2912      1        1000        kp                 1       0       1
kplay7e_133    log     factor    126.4457      1        1000        kp                 1       0       1
kplay7e_135    log     factor    64.54454      1        1000        kp                 1       0       1
kplay7e_136    log     factor    94.67863      1        1000        kp                 1       0       1
kplay7e_137    log     factor    103.7470      1        1000        kp                 1       0       1
kplay7e_138    log     factor    172.8170      1        1000        kp                 1       0       1
kplay7e_139    log     factor    230.0150      1        1000        kp                 1       0       1
kplay7e_140    log     factor    72.91643      1        1000        kp                 1       0       1
kplay7e_141    log     factor    74.25834      1        1000        kp                 1       0       1
kplay7e_142    log     factor    101.1850      1        1000        kp                 1       0       1
kplay7e_143    log     factor    104.6859      1        1000        kp                 1       0       1
kplay7e_144    log     factor    92.45535      1        1000        kp                 1       0       1
kplay7e_132    log     factor    111.7566      1        1000        kp                 1       0       1
kplay7e_134    log     factor    122.0029      1        1000        kp                 1       0       1
kplay7e_159    log     factor    68.81211      1        1000        kp                 1       0       1
kplay7e_131    log     factor    76.73584      1        1000        kp                 1       0       1
kplay7e_158    log     factor    104.4033      1        1000        kp                 1       0       1
kplay7e_150    log     factor    62.13571      1        1000        kp                 1       0       1
kplay7e_157    log     factor    88.19803      1        1000        kp                 1       0       1
kplay7e_151    log     factor    53.56308      1        1000        kp                 1       0       1
kplay7e_152    log     factor    95.65958      1        1000        kp                 1       0       1
kplay7e_153    log     factor    139.4349      1        1000        kp                 1       0       1
kplay7e_154    log     factor    132.2909      1        1000        kp                 1       0       1
kplay7e_160    log     factor    102.2232      1        1000        kp                 1       0       1
kplay7e_161    log     factor    57.47840      1        1000        kp                 1       0       1
kplay7e_162    log     factor    172.0820      1        1000        kp                 1       0       1
kplay7e_163    log     factor    130.4375      1        1000        kp                 1       0       1
kplay7e_164    log     factor    117.5332      1        1000        kp                 1       0       1
kplay7e_165    log     factor    88.99823      1        1000        kp                 1       0       1
kplay7e_166    log     factor    98.72978      1        1000        kp                 1       0       1
kplay7e_167    log     factor    119.7937      1        1000        kp                 1       0       1
kplay7e_168    log     factor    106.2920      1        1000        kp                 1       0       1
kplay7e_169    log     factor    93.84694      1        1000        kp                 1       0       1
kplay7e_156    log     factor    204.8285      1        1000        kp                 1       0       1
kplay7e_155    log     factor    58.71278      1        1000        kp                 1       0       1
kplay7e_183    log     factor    118.6142      1        1000        kp                 1       0       1
kplay7e_179    log     factor    116.7540      1        1000        kp                 1       0       1
kplay7e_184    log     factor    104.7867      1        1000        kp                 1       0       1
kplay7e_181    log     factor    91.11170      1        1000        kp                 1       0       1
kplay7e_176    log     factor    91.90185      1        1000        kp                 1       0       1
kplay7e_177    log     factor    100.9790      1        1000        kp                 1       0       1
kplay7e_178    log     factor    76.56795      1        1000        kp                 1       0       1
kplay7e_180    log     factor    127.4099      1        1000        kp                 1       0       1
kplay7e_185    log     factor    181.9151      1        1000        kp                 1       0       1
kplay7e_186    log     factor    103.4076      1        1000        kp                 1       0       1
kplay7e_187    log     factor    100.7302      1        1000        kp                 1       0       1
kplay7e_188    log     factor    91.55429      1        1000        kp                 1       0       1
kplay7e_189    log     factor    86.40190      1        1000        kp                 1       0       1
kplay7e_190    log     factor    112.6443      1        1000        kp                 1       0       1
kplay7e_191    log     factor    142.1682      1        1000        kp                 1       0       1
kplay7e_192    log     factor    81.59012      1        1000        kp                 1       0       1
kplay7e_193    log     factor    92.16215      1        1000        kp                 1       0       1
kplay7e_194    log     factor    92.27476      1        1000        kp                 1       0       1
kplay7e_209    log     factor    81.53864      1        1000        kp                 1       0       1
kplay7e_202    log     factor    54.69778      1        1000        kp                 1       0       1
kplay7e_203    log     factor    92.93481      1        1000        kp                 1       0       1
kplay7e_205    log     factor    72.87202      1        1000        kp                 1       0       1
kplay7e_206    log     factor    100.1541      1        1000        kp                 1       0       1
kplay7e_210    log     factor    76.94814      1        1000        kp                 1       0       1
kplay7e_211    log     factor    87.04896      1        1000        kp                 1       0       1
kplay7e_212    log     factor    245.4816      1        1000        kp                 1       0       1
kplay7e_213    log     factor    77.43636      1        1000        kp                 1       0       1
kplay7e_214    log     factor    86.92612      1        1000        kp                 1       0       1
kplay7e_215    log     factor    91.87530      1        1000        kp                 1       0       1
kplay7e_216    log     factor    125.9890      1        1000        kp                 1       0       1
kplay7e_217    log     factor    72.07543      1        1000        kp                 1       0       1
kplay7e_218    log     factor    76.70944      1        1000        kp                 1       0       1
kplay7e_219    log     factor    88.46689      1        1000        kp                 1       0       1
kplay7e_204    log     factor    138.0327      1        1000        kp                 1       0       1
kplay7e_208    log     factor    132.9448      1        1000        kp                 1       0       1
kplay7e_207    log     factor    123.0710      1        1000        kp                 1       0       1
kplay7e_182    log     factor    176.7766      1        1000        kp                 1       0       1
kplay7e_232    log     factor    302.7404      1        1000        kp                 1       0       1
kplay7e_234    log     factor    86.26526      1        1000        kp                 1       0       1
kplay7e_227    log     factor    79.96054      1        1000        kp                 1       0       1
kplay7e_228    log     factor    81.77498      1        1000        kp                 1       0       1
kplay7e_229    log     factor    112.8945      1        1000        kp                 1       0       1
kplay7e_230    log     factor    83.25813      1        1000        kp                 1       0       1
kplay7e_231    log     factor    184.3700      1        1000        kp                 1       0       1
kplay7e_235    log     factor    113.8917      1        1000        kp                 1       0       1
kplay7e_236    log     factor    163.8296      1        1000        kp                 1       0       1
kplay7e_237    log     factor    79.26885      1        1000        kp                 1       0       1
kplay7e_238    log     factor    58.41702      1        1000        kp                 1       0       1
kplay7e_239    log     factor    144.7381      1        1000        kp                 1       0       1
kplay7e_240    log     factor    74.95568      1        1000        kp                 1       0       1
kplay7e_241    log     factor    117.6715      1        1000        kp                 1       0       1
kplay7e_242    log     factor    37.83925      1        1000        kp                 1       0       1
kplay7e_243    log     factor    82.58257      1        1000        kp                 1       0       1
kplay7e_244    log     factor    74.80756      1        1000        kp                 1       0       1
kplay7e_233    log     factor    116.1110      1        1000        kp                 1       0       1
kplay7e_252    log     factor    84.20153      1        1000        kp                 1       0       1
kplay7e_253    log     factor    190.3780      1        1000        kp                 1       0       1
kplay7e_254    log     factor    65.33095      1        1000        kp                 1       0       1
kplay7e_255    log     factor    44.41072      1        1000        kp                 1       0       1