pcf
* control data
restart estimation
    2626     717       8       0      17
43  8  single  point  1  0  0
20.000       -3.0000      0.3  0.03  -12     999  lamforgive
5.000000e+000  5.000000e+000  1.000000e-003
1.000000e-001 1 noaui
0  1.000000e-002  3  3  1.000000e-002  3
1    1    1   1  nojcosaveitn reisaveitn parsaveitn
* singular value decomposition
1
500  5.0000000E-07
0
* parameter groups
kx           relative   1.000000e-002  0.000000e+000  always_3  2.000000e+000  parabolic
kz           relative   1.000000e-002  0.000000e+000  always_3  2.000000e+000  parabolic
kp           relative   1.000000e-002  0.000000e+000  switch    2.000000e+000  parabolic
kp_tguess    relative   1.000000e-002  0.000000e+000  switch    2.000000e+000  parabolic
rch_mult     relative   1.000000e-002  0.000000e+000  always_3  2.000000e+000  parabolic
lkbed_mult   relative   1.000000e-002  0.000000e+000  always_3  2.000000e+000  parabolic
streambed_kv relative   1.000000e-002  0.000000e+000  always_3  2.000000e+000  parabolic
aniso        relative   1.000000e-002  0.050000e+000  switch    2.000000e+000  parabolic
* parameter data
rch_unglaci    log     factor   0.8409843      2.50e-01    3.00e+00        rch_mult           1       0       1
rch_glacial    log     factor   0.8333425      2.50e-01    3.00e+00        rch_mult           1       0       1
gl_kv          log     factor    15.00000      2.50e-01    1.50e+01        streambed_kv       1       0       1
ungl_kv        log     factor    2.141404      2.50e-01    5.00e+01        streambed_kv       1       0       1
sprg_kv        fixed   factor    40.00000      2.50e-01    7.00e+01        streambed_kv       1       0       1
lkmendot       log     factor    1.258796      1.00e-03    1.00e+02        lkbed_mult         1       0       1
lkmonona       log     factor   0.8812916      1.00e-03    1.00e+02        lkbed_mult         1       0       1
lkwingra       log     factor   0.8022816      1.00e-03    1.00e+02        lkbed_mult         1       0       1
lkwaubes       log     factor    2.139358      1.00e-03    1.00e+02        lkbed_mult         1       0       1
lkkegons       log     factor   0.9761493      1.00e-03    1.00e+02        lkbed_mult         1       0       1
fishlake       fixed   factor    1.00000      1.00e-03    1.20e+00        lkbed_mult         1       0       1
crystllk       fixed   factor    1.00000      1.00e-03    1.20e+00        lkbed_mult         1       0       1
kppdc_stp      log     factor    13.48710      1          20        kp                 1       0       1
kzpdc_stp      log     factor   0.1000000      1.00e-01    2.00e+01        kz                 1       0       1
kpjordan       log     factor   0.3000000      0.3          30        kp                 1       0       1
kzjordan       log     factor   1.0000000E-02  1.00e-02    1.00e+01        kz                 1       0       1
kpstlaw        log     factor    60.00000      1          60        kp                 1       0       1
kzstlaw        log     factor   1.0000000E-02  1.00e-02    1.00e+01        kz                 1       0       1
kpuptc         fixed   factor    1.000000      1          10        kp                 1       0       1
kzuptc         fixed   factor   0.5000000      1.00e-02    1.00e+01        kz                 1       0       1
kzhitc         log     factor    9.272477      1.00e-02    1.50e+02        kz                 1       0       1
kztc_lay7w     log     factor   0.5692339      1.00e-03    1.00e+02        kz                 1       0       1
kplowtc        log     factor    1.000000      1           5        kp                 1       0       1
tckhkvratio    log     factor    2.000000      2       10000        aniso              1       0       1
kzwon          fixed   factor    1.000000      1.00e-02    1.00e+01        kz                 1       0       1
kzhiwon        log     factor    13.73183      1.00e-02    1.00e+02        kz                 1       0       1
kzwon_lay10w   log     factor   0.1446592      1.00e-03    1.00e+02        kz                 1       0       1
kpec           log     factor   1.4945653E-02  1.00e-04    1.00e+01        kp                 1       0       1
kx2            fixed   factor    10.00000      1.00e+00    1.00e+02        kx                 1       0       1
kz2            fixed   factor    1.000000      1.00e-03    1.00e+01        kz                 1       0       1
kx10           log     factor    20.00000      2.00e+01    3.00e+02        kx                 1       0       1
kx10ani        log     factor    5.240920      1.00e+00    1.00e+02        aniso              1       0       1
kx11           log     factor    5.000000      1.00e-02    5.00e+00        kx                 1       0       1
kx11ani        log     factor    1.000000      1.00e+00    1.00e+02        aniso              1       0       1
kx12           log     factor    25.36517      2.00e+00    2.00e+02        kx                 1       0       1
kx12ani        log     factor    1.000000      1.00e+00    1.00e+02        aniso              1       0       1
kx13           log     factor    10.00000      1.00e-01    1.00e+01        kx                 1       0       1
kx13ani        log     factor    6.988102      1.00e+00    1.00e+02        aniso              1       0       1
kx14           log     factor   0.5000000      5.00e-01    5.00e+01        kx                 1       0       1
kx14ani        log     factor    100.0000      1.00e+00    1.00e+02        aniso              1       0       1
kx15           log     factor   0.1000000      1.00e-01    1.00e+01        kx                 1       0       1
kx15ani        log     factor    100.0000      1.00e+00    1.00e+02        aniso              1       0       1
kx16           log     factor    332.1212      3.00e+00    6.00e+02        kx                 1       0       1
kx16ani        log     factor    1.991565      1.00e+00    1.00e+02        aniso              1       0       1
kx17           log     factor    300.0000      4.00e+00    4.00e+02        kx                 1       0       1
kx17ani        log     factor    2.000000      1.00e+00    1.00e+02        aniso              1       0       1
kx18           log     factor    2332.871      2.00e+00    2.00e+04        kx                 1       0       1
kz18           log     factor    5064.695      2.00e+00    2.00e+04        kz                 1       0       1
kx19           log     factor    1534.840      2.00e+00    2.00e+04        kx                 1       0       1
kz19           log     factor    450.2155      2.00e+00    2.00e+04        kz                 1       0       1
kx20           log     factor    2676.546      2.00e+00    2.00e+04        kx                 1       0       1
kz20           log     factor    2237.704      2.00e+00    2.00e+04        kz                 1       0       1
kx21           log     factor    2.000000      2.00e+00    2.00e+03        kx                 1       0       1
kz21           log     factor    2.000000      2.00e+00    2.00e+04        kz                 1       0       1
kx22           log     factor    2041.923      2.00e+00    2.00e+04        kx                 1       0       1
kz22           log     factor    2383.230      2.00e+00    2.00e+04        kz                 1       0       1
kx23           log     factor    3053.067      2.00e+00    2.00e+04        kx                 1       0       1
kz23           log     factor    2330.071      2.00e+00    2.00e+04        kz                 1       0       1
kx24           log     factor    2222.131      2.00e+00    2.00e+04        kx                 1       0       1
kz24           log     factor    2104.410      2.00e+00    2.00e+04        kz                 1       0       1
kx25           log     factor    2068.841      2.00e+00    2.00e+04        kx                 1       0       1
kz25           log     factor    2816.137      2.00e+00    2.00e+04        kz                 1       0       1
kx26           log     factor    110.5162      2.00e+00    2.00e+04        kx                 1       0       1
kz26           log     factor    15.61293      2.00e+00    2.00e+04        kz                 1       0       1
kplay7e_2      log     factor    107.5755      1        1000        kp                 1       0       1
kplay7e_3      log     factor    111.3149      1        1000        kp                 1       0       1
kplay7e_4      log     factor    88.20149      1        1000        kp                 1       0       1
kplay7e_5      log     factor    70.95834      1        1000        kp                 1       0       1
kplay7e_6      log     factor    112.4476      1        1000        kp                 1       0       1
kplay7e_7      log     factor    104.7558      1        1000        kp                 1       0       1
kplay7e_8      log     factor    100.7093      1        1000        kp                 1       0       1
kplay7e_9      log     factor    80.42738      1        1000        kp                 1       0       1
kplay7e_10     log     factor    111.9050      1        1000        kp                 1       0       1
kplay7e_11     log     factor    77.50297      1        1000        kp                 1       0       1
kplay7e_12     log     factor    93.92087      1        1000        kp                 1       0       1
kplay7e_13     log     factor    158.8864      1        1000        kp                 1       0       1
kplay7e_14     log     factor    96.08525      1        1000        kp                 1       0       1
kplay7e_15     log     factor    67.48466      1        1000        kp                 1       0       1
kplay7e_16     log     factor    123.6358      1        1000        kp                 1       0       1
kplay7e_17     log     factor    119.3942      1        1000        kp                 1       0       1
kplay7e_18     log     factor    119.3745      1        1000        kp                 1       0       1
kplay7e_19     log     factor    174.5429      1        1000        kp                 1       0       1
kplay7e_20     log     factor    210.6648      1        1000        kp                 1       0       1
kplay7e_21     log     factor    122.4427      1        1000        kp                 1       0       1
kplay7e_22     log     factor    126.9362      1        1000        kp                 1       0       1
kplay7e_24     log     factor    100.0691      1        1000        kp                 1       0       1
kplay7e_25     log     factor    108.4886      1        1000        kp                 1       0       1
kplay7e_26     log     factor    109.5695      1        1000        kp                 1       0       1
kplay7e_27     log     factor    143.9509      1        1000        kp                 1       0       1
kplay7e_28     log     factor    61.92305      1        1000        kp                 1       0       1
kplay7e_29     log     factor    125.6972      1        1000        kp                 1       0       1
kplay7e_30     log     factor    95.05528      1        1000        kp                 1       0       1
kplay7e_31     log     factor    181.1743      1        1000        kp                 1       0       1
kplay7e_32     log     factor    44.62687      1        1000        kp                 1       0       1
kplay7e_33     log     factor    64.78089      1        1000        kp                 1       0       1
kplay7e_35     log     factor    120.3465      1        1000        kp                 1       0       1
kplay7e_36     log     factor    120.5474      1        1000        kp                 1       0       1
kplay7e_37     log     factor    312.3824      1        1000        kp                 1       0       1
kplay7e_38     log     factor    132.3363      1        1000        kp                 1       0       1
kplay7e_39     log     factor    116.0180      1        1000        kp                 1       0       1
kplay7e_40     log     factor    82.37653      1        1000        kp                 1       0       1
kplay7e_41     log     factor    81.22800      1        1000        kp                 1       0       1
kplay7e_42     log     factor    114.9102      1        1000        kp                 1       0       1
kplay7e_43     log     factor    89.40091      1        1000        kp                 1       0       1
kplay7e_44     log     factor    100.7632      1        1000        kp                 1       0       1
kplay7e_34     log     factor    62.95973      1        1000        kp                 1       0       1
kplay7e_50     log     factor    100.5670      1        1000        kp                 1       0       1
kplay7e_51     log     factor    20.18915      1        1000        kp                 1       0       1
kplay7e_52     log     factor    81.68928      1        1000        kp                 1       0       1
kplay7e_53     log     factor    112.2934      1        1000        kp                 1       0       1
kplay7e_54     log     factor    126.7157      1        1000        kp                 1       0       1
kplay7e_55     log     factor    50.20510      1        1000        kp                 1       0       1
kplay7e_56     log     factor    51.30417      1        1000        kp                 1       0       1
kplay7e_57     log     factor    141.2594      1        1000        kp                 1       0       1
kplay7e_58     log     factor    199.5171      1        1000        kp                 1       0       1
kplay7e_59     log     factor    40.09042      1        1000        kp                 1       0       1
kplay7e_60     log     factor    85.19623      1        1000        kp                 1       0       1
kplay7e_61     log     factor    51.95733      1        1000        kp                 1       0       1
kplay7e_62     log     factor    102.6229      1        1000        kp                 1       0       1
kplay7e_63     log     factor    140.6633      1        1000        kp                 1       0       1
kplay7e_64     log     factor    82.60514      1        1000        kp                 1       0       1
kplay7e_65     log     factor    132.1999      1        1000        kp                 1       0       1
kplay7e_66     log     factor    121.6930      1        1000        kp                 1       0       1
kplay7e_67     log     factor    68.68678      1        1000        kp                 1       0       1
kplay7e_68     log     factor    134.7811      1        1000        kp                 1       0       1
kplay7e_69     log     factor    170.2625      1        1000        kp                 1       0       1
kplay7e_49     log     factor    108.0315      1        1000        kp                 1       0       1
kplay7e_80     log     factor    155.5066      1        1000        kp                 1       0       1
kplay7e_84     log     factor    105.4216      1        1000        kp                 1       0       1
kplay7e_75     log     factor    122.7216      1        1000        kp                 1       0       1
kplay7e_76     log     factor    89.94119      1        1000        kp                 1       0       1
kplay7e_77     log     factor    129.6959      1        1000        kp                 1       0       1
kplay7e_78     log     factor    87.70508      1        1000        kp                 1       0       1
kplay7e_79     log     factor    120.5021      1        1000        kp                 1       0       1
kplay7e_81     log     factor    138.3806      1        1000        kp                 1       0       1
kplay7e_82     log     factor    92.66492      1        1000        kp                 1       0       1
kplay7e_83     log     factor    337.5687      1        1000        kp                 1       0       1
kplay7e_85     log     factor    89.78005      1        1000        kp                 1       0       1
kplay7e_86     log     factor    165.8168      1        1000        kp                 1       0       1
kplay7e_87     log     factor    115.0261      1        1000        kp                 1       0       1
kplay7e_88     log     factor    105.3806      1        1000        kp                 1       0       1
kplay7e_89     log     factor    76.50685      1        1000        kp                 1       0       1
kplay7e_90     log     factor    117.0328      1        1000        kp                 1       0       1
kplay7e_91     log     factor    188.8968      1        1000        kp                 1       0       1
kplay7e_92     log     factor    138.8785      1        1000        kp                 1       0       1
kplay7e_93     log     factor    88.07411      1        1000        kp                 1       0       1
kplay7e_94     log     factor    44.59136      1        1000        kp                 1       0       1
kplay7e_99     log     factor    132.2649      1        1000        kp                 1       0       1
kplay7e_100    log     factor    92.20994      1        1000        kp                 1       0       1
kplay7e_101    log     factor    84.77451      1        1000        kp                 1       0       1
kplay7e_102    log     factor    115.5586      1        1000        kp                 1       0       1
kplay7e_103    log     factor    78.89650      1        1000        kp                 1       0       1
kplay7e_104    log     factor    98.11499      1        1000        kp                 1       0       1
kplay7e_105    log     factor    99.71661      1        1000        kp                 1       0       1
kplay7e_106    log     factor    105.7417      1        1000        kp                 1       0       1
kplay7e_107    log     factor    45.92551      1        1000        kp                 1       0       1
kplay7e_108    log     factor    63.09879      1        1000        kp                 1       0       1
kplay7e_109    log     factor    110.4452      1        1000        kp                 1       0       1
kplay7e_110    log     factor    155.1633      1        1000        kp                 1       0       1
kplay7e_111    log     factor    69.19018      1        1000        kp                 1       0       1
kplay7e_112    log     factor    106.2451      1        1000        kp                 1       0       1
kplay7e_113    log     factor    66.65751      1        1000        kp                 1       0       1
kplay7e_114    log     factor    99.06034      1        1000        kp                 1       0       1
kplay7e_115    log     factor    93.94190      1        1000        kp                 1       0       1
kplay7e_116    log     factor    194.3451      1        1000        kp                 1       0       1
kplay7e_117    log     factor    91.22035      1        1000        kp                 1       0       1
kplay7e_118    log     factor    140.8299      1        1000        kp                 1       0       1
kplay7e_119    log     factor    63.10722      1        1000        kp                 1       0       1
kplay7e_124    log     factor    92.05664      1        1000        kp                 1       0       1
kplay7e_125    log     factor    88.13896      1        1000        kp                 1       0       1
kplay7e_126    log     factor    75.67519      1        1000        kp                 1       0       1
kplay7e_127    log     factor    120.9862      1        1000        kp                 1       0       1
kplay7e_128    log     factor    169.0197      1        1000        kp                 1       0       1
kplay7e_129    log     factor    91.89000      1        1000        kp                 1       0       1
kplay7e_130    log     factor    126.3919      1        1000        kp                 1       0       1
kplay7e_133    log     factor    126.9467      1        1000        kp                 1       0       1
kplay7e_135    log     factor    65.37406      1        1000        kp                 1       0       1
kplay7e_136    log     factor    93.68983      1        1000        kp                 1       0       1
kplay7e_137    log     factor    98.98784      1        1000        kp                 1       0       1
kplay7e_138    log     factor    172.5338      1        1000        kp                 1       0       1
kplay7e_139    log     factor    285.6007      1        1000        kp                 1       0       1
kplay7e_140    log     factor    74.40712      1        1000        kp                 1       0       1
kplay7e_141    log     factor    78.59101      1        1000        kp                 1       0       1
kplay7e_142    log     factor    102.6866      1        1000        kp                 1       0       1
kplay7e_143    log     factor    101.4111      1        1000        kp                 1       0       1
kplay7e_144    log     factor    98.03723      1        1000        kp                 1       0       1
kplay7e_132    log     factor    110.3579      1        1000        kp                 1       0       1
kplay7e_134    log     factor    123.0686      1        1000        kp                 1       0       1
kplay7e_159    log     factor    68.86897      1        1000        kp                 1       0       1
kplay7e_131    log     factor    76.71543      1        1000        kp                 1       0       1
kplay7e_158    log     factor    107.4601      1        1000        kp                 1       0       1
kplay7e_150    log     factor    63.75435      1        1000        kp                 1       0       1
kplay7e_157    log     factor    90.53541      1        1000        kp                 1       0       1
kplay7e_151    log     factor    56.54748      1        1000        kp                 1       0       1
kplay7e_152    log     factor    95.35481      1        1000        kp                 1       0       1
kplay7e_153    log     factor    141.0286      1        1000        kp                 1       0       1
kplay7e_154    log     factor    128.8534      1        1000        kp                 1       0       1
kplay7e_160    log     factor    106.6433      1        1000        kp                 1       0       1
kplay7e_161    log     factor    46.50560      1        1000        kp                 1       0       1
kplay7e_162    log     factor    196.8550      1        1000        kp                 1       0       1
kplay7e_163    log     factor    123.4877      1        1000        kp                 1       0       1
kplay7e_164    log     factor    121.8631      1        1000        kp                 1       0       1
kplay7e_165    log     factor    87.60412      1        1000        kp                 1       0       1
kplay7e_166    log     factor    101.9024      1        1000        kp                 1       0       1
kplay7e_167    log     factor    124.3195      1        1000        kp                 1       0       1
kplay7e_168    log     factor    117.8247      1        1000        kp                 1       0       1
kplay7e_169    log     factor    94.47864      1        1000        kp                 1       0       1
kplay7e_156    log     factor    205.2065      1        1000        kp                 1       0       1
kplay7e_155    log     factor    59.86910      1        1000        kp                 1       0       1
kplay7e_183    log     factor    125.4536      1        1000        kp                 1       0       1
kplay7e_179    log     factor    124.8553      1        1000        kp                 1       0       1
kplay7e_184    log     factor    104.1004      1        1000        kp                 1       0       1
kplay7e_181    log     factor    87.96377      1        1000        kp                 1       0       1
kplay7e_176    log     factor    84.43285      1        1000        kp                 1       0       1
kplay7e_177    log     factor    88.75478      1        1000        kp                 1       0       1
kplay7e_178    log     factor    68.42568      1        1000        kp                 1       0       1
kplay7e_180    log     factor    130.1605      1        1000        kp                 1       0       1
kplay7e_185    log     factor    237.7432      1        1000        kp                 1       0       1
kplay7e_186    log     factor    107.5742      1        1000        kp                 1       0       1
kplay7e_187    log     factor    93.34508      1        1000        kp                 1       0       1
kplay7e_188    log     factor    94.95187      1        1000        kp                 1       0       1
kplay7e_189    log     factor    86.54680      1        1000        kp                 1       0       1
kplay7e_190    log     factor    112.8675      1        1000        kp                 1       0       1
kplay7e_191    log     factor    141.2013      1        1000        kp                 1       0       1
kplay7e_192    log     factor    78.53647      1        1000        kp                 1       0       1
kplay7e_193    log     factor    94.21046      1        1000        kp                 1       0       1
kplay7e_194    log     factor    91.52408      1        1000        kp                 1       0       1
kplay7e_209    log     factor    80.39003      1        1000        kp                 1       0       1
kplay7e_202    log     factor    38.95174      1        1000        kp                 1       0       1
kplay7e_203    log     factor    80.41885      1        1000        kp                 1       0       1
kplay7e_205    log     factor    72.00617      1        1000        kp                 1       0       1
kplay7e_206    log     factor    95.34978      1        1000        kp                 1       0       1
kplay7e_210    log     factor    104.6276      1        1000        kp                 1       0       1
kplay7e_211    log     factor    89.64476      1        1000        kp                 1       0       1
kplay7e_212    log     factor    247.9059      1        1000        kp                 1       0       1
kplay7e_213    log     factor    75.90259      1        1000        kp                 1       0       1
kplay7e_214    log     factor    91.99821      1        1000        kp                 1       0       1
kplay7e_215    log     factor    96.95817      1        1000        kp                 1       0       1
kplay7e_216    log     factor    119.0127      1        1000        kp                 1       0       1
kplay7e_217    log     factor    70.75613      1        1000        kp                 1       0       1
kplay7e_218    log     factor    76.54040      1        1000        kp                 1       0       1
kplay7e_219    log     factor    88.78477      1        1000        kp                 1       0       1
kplay7e_204    log     factor    144.0761      1        1000        kp                 1       0       1
kplay7e_208    log     factor    130.2182      1        1000        kp                 1       0       1
kplay7e_207    log     factor    126.1278      1        1000        kp                 1       0       1
kplay7e_182    log     factor    184.8339      1        1000        kp                 1       0       1
kplay7e_232    log     factor    370.0493      1        1000        kp                 1       0       1
kplay7e_234    log     factor    88.77116      1        1000        kp                 1       0       1
kplay7e_227    log     factor    82.89878      1        1000        kp                 1       0       1
kplay7e_228    log     factor    83.35023      1        1000        kp                 1       0       1
kplay7e_229    log     factor    108.6220      1        1000        kp                 1       0       1
kplay7e_230    log     factor    83.29424      1        1000        kp                 1       0       1
kplay7e_231    log     factor    214.3989      1        1000        kp                 1       0       1
kplay7e_235    log     factor    115.2732      1        1000        kp                 1       0       1
kplay7e_236    log     factor    169.0712      1        1000        kp                 1       0       1
kplay7e_237    log     factor    84.48397      1        1000        kp                 1       0       1
kplay7e_238    log     factor    59.29204      1        1000        kp                 1       0       1
kplay7e_239    log     factor    151.5840      1        1000        kp                 1       0       1
kplay7e_240    log     factor    79.58096      1        1000        kp                 1       0       1
kplay7e_241    log     factor    113.9967      1        1000        kp                 1       0       1
kplay7e_242    log     factor    38.71125      1        1000        kp                 1       0       1
kplay7e_243    log     factor    82.10539      1        1000        kp                 1       0       1
kplay7e_244    log     factor    74.34961      1        1000        kp                 1       0       1
kplay7e_233    log     factor    108.7672      1        1000        kp                 1       0       1
kplay7e_252    log     factor    83.16094      1        1000        kp                 1       0       1
kplay7e_253    log     factor    190.2875      1        1000        kp                 1       0       1
kplay7e_254    log     factor    64.95968      1        1000        kp                 1       0       1
kplay7e_255    log     factor    45.19300      1        1000        kp                 1       0       1