pcf
* control data
restart regularisation
   2626   717       8   26031      25
43  8  single  point  1  0  0
20.000       -3.0000      0.3  0.03  -12     999  lamforgive    derforgive
5.000000e+000  5.000000e+000  1.000000e-003
1.000000e-001 1 noaui
-1  1.000000e-002  3  3  1.000000e-002  3 
1    1    1   1  nojcosaveitn reisaveitn parsaveitn
* singular value decomposition
1
250  5.0000000E-07
0
* parameter groups
kx           relative   1.000000e-002  0.000000e+000  always_3  2.000000e+000  parabolic
kz           relative   1.000000e-002  0.000000e+000  always_3  2.000000e+000  parabolic
kp           relative   1.000000e-002  0.000000e+000  switch    2.000000e+000  parabolic
kp_tguess    relative   1.000000e-002  0.000000e+000  switch    2.000000e+000  parabolic
rch_mult     relative   1.000000e-002  0.000000e+000  always_3  2.000000e+000  parabolic
lkbed_mult   relative   1.000000e-002  0.000000e+000  always_3  2.000000e+000  parabolic
streambed_kv relative   1.000000e-002  0.000000e+000  always_3  2.000000e+000  parabolic
aniso        relative   1.000000e-002  0.050000e+000  switch    2.000000e+000  parabolic
* parameter data
rch_unglaci    log     factor      0.80    2.50E-01    3.00E+00        rch_mult           1       0       1
rch_glacial    log     factor      0.80    2.50E-01    3.00E+00        rch_mult           1       0       1
gl_kv          log     factor      10.0    2.50E-01    1.50E+01        streambed_kv       1       0       1
ungl_kv        log     factor       1.5    2.50E-01    5.00E+01        streambed_kv       1       0       1
sprg_kv        fixed   factor      40.0    2.50E-01    7.00E+01        streambed_kv       1       0       1
lkmendot       log     factor  1.000000    1.00E-03    1.00E+02        lkbed_mult         1       0       1
lkmonona       log     factor  1.000000    1.00E-03    1.00E+02        lkbed_mult         1       0       1
lkwingra       log     factor  1.000000    1.00E-03    1.00E+02        lkbed_mult         1       0       1
lkwaubes       log     factor  1.000000    1.00E-03    1.00E+02        lkbed_mult         1       0       1
lkkegons       log     factor  1.000000    1.00E-03    1.00E+02        lkbed_mult         1       0       1
fishlake       fixed   factor         1    1.00E-03    1.20E+00        lkbed_mult         1       0       1
crystllk       fixed   factor         1    1.00E-03    1.20E+00        lkbed_mult         1       0       1
kppdc_stp      log     factor       7.0           1          20        kp                 1       0       1
kzpdc_stp      log     factor       0.7    1.00E-01    2.00E+01        kz                 1       0       1
kpjordan       log     factor       1.0         0.3          30        kp                 1       0       1
kzjordan       log     factor       0.1    1.00E-02    1.00E+01        kz                 1       0       1
kpstlaw        log     factor      30.0           1          60        kp                 1       0       1
kzstlaw        log     factor       0.1    1.00E-02    1.00E+01        kz                 1       0       1
kpuptc         fixed   factor       1.0           1          10        kp                 1       0       1
kzuptc         fixed   factor       0.5    1.00E-02    1.00E+01        kz                 1       0       1
kzhitc         log     factor      10.0    1.00E-02    1.50E+02        kz                 1       0       1
kztc_lay7w     log     factor       0.5    1.00E-03    1.00E+02        kz                 1       0       1
kplowtc        log     factor       2.0           1           5        kp                 1       0       1
tckhkvratio    log     factor       2.5           2       10000        aniso              1       0       1
kzwon          fixed   factor       1.0    1.00E-02    1.00E+01        kz                 1       0       1
kzhiwon        log     factor      10.0    1.00E-02    1.00E+02        kz                 1       0       1
kzwon_lay10w   log     factor       0.1    1.00E-03    1.00E+02        kz                 1       0       1
kpec           log     factor      0.01    1.00E-04    1.00E+01        kp                 1       0       1
kx2            fixed   factor      10.0    1.00E+00    1.00E+02        kx                 1       0       1
kz2            fixed   factor       1.0    1.00E-03    1.00E+01        kz                 1       0       1
kx10           log     factor      25.0    2.00E+01    3.00E+02        kx                 1       0       1
kx10ani        log     factor       2.0    1.00E+00    1.00E+02        aniso              1       0       1
kx11           log     factor       4.0    1.00E-02    5.00E+00        kx                 1       0       1
kx11ani        log     factor       2.0    1.00E+00    1.00E+02        aniso              1       0       1
kx12           log     factor      45.0    2.00E+00    2.00E+02        kx                 1       0       1
kx12ani        log     factor       2.0    1.00E+00    1.00E+02        aniso              1       0       1
kx13           log     factor       9.0    1.00E-01    1.00E+01        kx                 1       0       1
kx13ani        log     factor       4.0    1.00E+00    1.00E+02        aniso              1       0       1
kx14           log     factor       1.0    5.00E-01    5.00E+01        kx                 1       0       1
kx14ani        log     factor      90.0    1.00E+00    1.00E+02        aniso              1       0       1
kx15           log     factor       2.0    1.00E-01    1.00E+01        kx                 1       0       1
kx15ani        log     factor       4.0    1.00E+00    1.00E+02        aniso              1       0       1
kx16           fixed   factor     300.0    3.00E+00    3.00E+02        kx                 1       0       1
kx16ani        fixed   factor       2.0    1.00E+00    1.00E+02        aniso              1       0       1
kx17           log     factor     100.0    7.00E+00    7.00E+02        kx                 1       0       1
kx17ani        log     factor       2.0    1.00E+00    1.00E+02        aniso              1       0       1
kx18           log     factor      2000    2.00E+00    2.00E+04        kx                 1       0       1
kz18           log     factor      2000    2.00E+00    2.00E+04        kz                 1       0       1
kx19           log     factor      2000    2.00E+00    2.00E+04        kx                 1       0       1
kz19           log     factor      2000    2.00E+00    2.00E+04        kz                 1       0       1
kx20           log     factor      2000    2.00E+00    2.00E+04        kx                 1       0       1
kz20           log     factor      2000    2.00E+00    2.00E+04        kz                 1       0       1
kx21           log     factor       2.0    2.00E+00    2.00E+03        kx                 1       0       1
kz21           log     factor       2.0    2.00E+00    2.00E+04        kz                 1       0       1
kx22           log     factor      2000    2.00E+00    2.00E+04        kx                 1       0       1
kz22           log     factor      2000    2.00E+00    2.00E+04        kz                 1       0       1
kx23           log     factor      2000    2.00E+00    2.00E+04        kx                 1       0       1
kz23           log     factor      2000    2.00E+00    2.00E+04        kz                 1       0       1
kx24           log     factor      2000    2.00E+00    2.00E+04        kx                 1       0       1
kz24           log     factor      2000    2.00E+00    2.00E+04        kz                 1       0       1
kx25           log     factor      2000    2.00E+00    2.00E+04        kx                 1       0       1
kz25           log     factor      2000    2.00E+00    2.00E+04        kz                 1       0       1
kx26           log     factor       100    2.00E+00    2.00E+04        kx                 1       0       1
kz26           log     factor         6    2.00E+00    2.00E+04        kz                 1       0       1
kplay7e_2      log     factor       100           1        1000        kp                 1       0       1
kplay7e_3      log     factor       100           1        1000        kp                 1       0       1
kplay7e_4      log     factor       100           1        1000        kp                 1       0       1
kplay7e_5      log     factor       100           1        1000        kp                 1       0       1
kplay7e_6      log     factor       100           1        1000        kp                 1       0       1
kplay7e_7      log     factor       100           1        1000        kp                 1       0       1
kplay7e_8      log     factor       100           1        1000        kp                 1       0       1
kplay7e_9      log     factor       100           1        1000        kp                 1       0       1
kplay7e_10     log     factor       100           1        1000        kp                 1       0       1
kplay7e_11     log     factor       100           1        1000        kp                 1       0       1
kplay7e_12     log     factor       100           1        1000        kp                 1       0       1
kplay7e_13     log     factor       100           1        1000        kp                 1       0       1
kplay7e_14     log     factor       100           1        1000        kp                 1       0       1
kplay7e_15     log     factor       100           1        1000        kp                 1       0       1
kplay7e_16     log     factor       100           1        1000        kp                 1       0       1
kplay7e_17     log     factor       100           1        1000        kp                 1       0       1
kplay7e_18     log     factor       100           1        1000        kp                 1       0       1
kplay7e_19     log     factor       100           1        1000        kp                 1       0       1
kplay7e_20     log     factor       100           1        1000        kp                 1       0       1
kplay7e_21     log     factor       100           1        1000        kp                 1       0       1
kplay7e_22     log     factor       100           1        1000        kp                 1       0       1
kplay7e_24     log     factor       100           1        1000        kp                 1       0       1
kplay7e_25     log     factor       100           1        1000        kp                 1       0       1
kplay7e_26     log     factor       100           1        1000        kp                 1       0       1
kplay7e_27     log     factor       100           1        1000        kp                 1       0       1
kplay7e_28     log     factor       100           1        1000        kp                 1       0       1
kplay7e_29     log     factor       100           1        1000        kp                 1       0       1
kplay7e_30     log     factor       100           1        1000        kp                 1       0       1
kplay7e_31     log     factor       100           1        1000        kp                 1       0       1
kplay7e_32     log     factor       100           1        1000        kp                 1       0       1
kplay7e_33     log     factor       100           1        1000        kp                 1       0       1
kplay7e_35     log     factor       100           1        1000        kp                 1       0       1
kplay7e_36     log     factor       100           1        1000        kp                 1       0       1
kplay7e_37     log     factor       100           1        1000        kp                 1       0       1
kplay7e_38     log     factor       100           1        1000        kp                 1       0       1
kplay7e_39     log     factor       100           1        1000        kp                 1       0       1
kplay7e_40     log     factor       100           1        1000        kp                 1       0       1
kplay7e_41     log     factor       100           1        1000        kp                 1       0       1
kplay7e_42     log     factor       100           1        1000        kp                 1       0       1
kplay7e_43     log     factor       100           1        1000        kp                 1       0       1
kplay7e_44     log     factor       100           1        1000        kp                 1       0       1
kplay7e_34     log     factor       100           1        1000        kp                 1       0       1
kplay7e_50     log     factor       100           1        1000        kp                 1       0       1
kplay7e_51     log     factor       100           1        1000        kp                 1       0       1
kplay7e_52     log     factor       100           1        1000        kp                 1       0       1
kplay7e_53     log     factor       100           1        1000        kp                 1       0       1
kplay7e_54     log     factor       100           1        1000        kp                 1       0       1
kplay7e_55     log     factor       100           1        1000        kp                 1       0       1
kplay7e_56     log     factor       100           1        1000        kp                 1       0       1
kplay7e_57     log     factor       100           1        1000        kp                 1       0       1
kplay7e_58     log     factor       100           1        1000        kp                 1       0       1
kplay7e_59     log     factor       100           1        1000        kp                 1       0       1
kplay7e_60     log     factor       100           1        1000        kp                 1       0       1
kplay7e_61     log     factor       100           1        1000        kp                 1       0       1
kplay7e_62     log     factor       100           1        1000        kp                 1       0       1
kplay7e_63     log     factor       100           1        1000        kp                 1       0       1
kplay7e_64     log     factor       100           1        1000        kp                 1       0       1
kplay7e_65     log     factor       100           1        1000        kp                 1       0       1
kplay7e_66     log     factor       100           1        1000        kp                 1       0       1
kplay7e_67     log     factor       100           1        1000        kp                 1       0       1
kplay7e_68     log     factor       100           1        1000        kp                 1       0       1
kplay7e_69     log     factor       100           1        1000        kp                 1       0       1
kplay7e_49     log     factor       100           1        1000        kp                 1       0       1
kplay7e_80     log     factor       100           1        1000        kp                 1       0       1
kplay7e_84     log     factor       100           1        1000        kp                 1       0       1
kplay7e_75     log     factor       100           1        1000        kp                 1       0       1
kplay7e_76     log     factor       100           1        1000        kp                 1       0       1
kplay7e_77     log     factor       100           1        1000        kp                 1       0       1
kplay7e_78     log     factor       100           1        1000        kp                 1       0       1
kplay7e_79     log     factor       100           1        1000        kp                 1       0       1
kplay7e_81     log     factor       100           1        1000        kp                 1       0       1
kplay7e_82     log     factor       100           1        1000        kp                 1       0       1
kplay7e_83     log     factor       100           1        1000        kp                 1       0       1
kplay7e_85     log     factor       100           1        1000        kp                 1       0       1
kplay7e_86     log     factor       100           1        1000        kp                 1       0       1
kplay7e_87     log     factor       100           1        1000        kp                 1       0       1
kplay7e_88     log     factor       100           1        1000        kp                 1       0       1
kplay7e_89     log     factor       100           1        1000        kp                 1       0       1
kplay7e_90     log     factor       100           1        1000        kp                 1       0       1
kplay7e_91     log     factor       100           1        1000        kp                 1       0       1
kplay7e_92     log     factor       100           1        1000        kp                 1       0       1
kplay7e_93     log     factor       100           1        1000        kp                 1       0       1
kplay7e_94     log     factor       100           1        1000        kp                 1       0       1
kplay7e_99     log     factor       100           1        1000        kp                 1       0       1
kplay7e_100    log     factor       100           1        1000        kp                 1       0       1
kplay7e_101    log     factor       100           1        1000        kp                 1       0       1
kplay7e_102    log     factor       100           1        1000        kp                 1       0       1
kplay7e_103    log     factor       100           1        1000        kp                 1       0       1
kplay7e_104    log     factor       100           1        1000        kp                 1       0       1
kplay7e_105    log     factor       100           1        1000        kp                 1       0       1
kplay7e_106    log     factor       100           1        1000        kp                 1       0       1
kplay7e_107    log     factor       100           1        1000        kp                 1       0       1
kplay7e_108    log     factor       100           1        1000        kp                 1       0       1
kplay7e_109    log     factor       100           1        1000        kp                 1       0       1
kplay7e_110    log     factor       100           1        1000        kp                 1       0       1
kplay7e_111    log     factor       100           1        1000        kp                 1       0       1
kplay7e_112    log     factor       100           1        1000        kp                 1       0       1
kplay7e_113    log     factor       100           1        1000        kp                 1       0       1
kplay7e_114    log     factor       100           1        1000        kp                 1       0       1
kplay7e_115    log     factor       100           1        1000        kp                 1       0       1
kplay7e_116    log     factor       100           1        1000        kp                 1       0       1
kplay7e_117    log     factor       100           1        1000        kp                 1       0       1
kplay7e_118    log     factor       100           1        1000        kp                 1       0       1
kplay7e_119    log     factor       100           1        1000        kp                 1       0       1
kplay7e_124    log     factor       100           1        1000        kp                 1       0       1
kplay7e_125    log     factor       100           1        1000        kp                 1       0       1
kplay7e_126    log     factor       100           1        1000        kp                 1       0       1
kplay7e_127    log     factor       100           1        1000        kp                 1       0       1
kplay7e_128    log     factor       100           1        1000        kp                 1       0       1
kplay7e_129    log     factor       100           1        1000        kp                 1       0       1
kplay7e_130    log     factor       100           1        1000        kp                 1       0       1
kplay7e_133    log     factor       100           1        1000        kp                 1       0       1
kplay7e_135    log     factor       100           1        1000        kp                 1       0       1
kplay7e_136    log     factor       100           1        1000        kp                 1       0       1
kplay7e_137    log     factor       100           1        1000        kp                 1       0       1
kplay7e_138    log     factor       100           1        1000        kp                 1       0       1
kplay7e_139    log     factor       100           1        1000        kp                 1       0       1
kplay7e_140    log     factor       100           1        1000        kp                 1       0       1
kplay7e_141    log     factor       100           1        1000        kp                 1       0       1
kplay7e_142    log     factor       100           1        1000        kp                 1       0       1
kplay7e_143    log     factor       100           1        1000        kp                 1       0       1
kplay7e_144    log     factor       100           1        1000        kp                 1       0       1
kplay7e_132    log     factor       100           1        1000        kp                 1       0       1
kplay7e_134    log     factor       100           1        1000        kp                 1       0       1
kplay7e_159    log     factor       100           1        1000        kp                 1       0       1
kplay7e_131    log     factor       100           1        1000        kp                 1       0       1
kplay7e_158    log     factor       100           1        1000        kp                 1       0       1
kplay7e_150    log     factor       100           1        1000        kp                 1       0       1
kplay7e_157    log     factor       100           1        1000        kp                 1       0       1
kplay7e_151    log     factor       100           1        1000        kp                 1       0       1
kplay7e_152    log     factor       100           1        1000        kp                 1       0       1
kplay7e_153    log     factor       100           1        1000        kp                 1       0       1
kplay7e_154    log     factor       100           1        1000        kp                 1       0       1
kplay7e_160    log     factor       100           1        1000        kp                 1       0       1
kplay7e_161    log     factor       100           1        1000        kp                 1       0       1
kplay7e_162    log     factor       100           1        1000        kp                 1       0       1
kplay7e_163    log     factor       100           1        1000        kp                 1       0       1
kplay7e_164    log     factor       100           1        1000        kp                 1       0       1
kplay7e_165    log     factor       100           1        1000        kp                 1       0       1
kplay7e_166    log     factor       100           1        1000        kp                 1       0       1
kplay7e_167    log     factor       100           1        1000        kp                 1       0       1
kplay7e_168    log     factor       100           1        1000        kp                 1       0       1
kplay7e_169    log     factor       100           1        1000        kp                 1       0       1
kplay7e_156    log     factor       100           1        1000        kp                 1       0       1
kplay7e_155    log     factor       100           1        1000        kp                 1       0       1
kplay7e_183    log     factor       100           1        1000        kp                 1       0       1
kplay7e_179    log     factor       100           1        1000        kp                 1       0       1
kplay7e_184    log     factor       100           1        1000        kp                 1       0       1
kplay7e_181    log     factor       100           1        1000        kp                 1       0       1
kplay7e_176    log     factor       100           1        1000        kp                 1       0       1
kplay7e_177    log     factor       100           1        1000        kp                 1       0       1
kplay7e_178    log     factor       100           1        1000        kp                 1       0       1
kplay7e_180    log     factor       100           1        1000        kp                 1       0       1
kplay7e_185    log     factor       100           1        1000        kp                 1       0       1
kplay7e_186    log     factor       100           1        1000        kp                 1       0       1
kplay7e_187    log     factor       100           1        1000        kp                 1       0       1
kplay7e_188    log     factor       100           1        1000        kp                 1       0       1
kplay7e_189    log     factor       100           1        1000        kp                 1       0       1
kplay7e_190    log     factor       100           1        1000        kp                 1       0       1
kplay7e_191    log     factor       100           1        1000        kp                 1       0       1
kplay7e_192    log     factor       100           1        1000        kp                 1       0       1
kplay7e_193    log     factor       100           1        1000        kp                 1       0       1
kplay7e_194    log     factor       100           1        1000        kp                 1       0       1
kplay7e_209    log     factor       100           1        1000        kp                 1       0       1
kplay7e_202    log     factor       100           1        1000        kp                 1       0       1
kplay7e_203    log     factor       100           1        1000        kp                 1       0       1
kplay7e_205    log     factor       100           1        1000        kp                 1       0       1
kplay7e_206    log     factor       100           1        1000        kp                 1       0       1
kplay7e_210    log     factor       100           1        1000        kp                 1       0       1
kplay7e_211    log     factor       100           1        1000        kp                 1       0       1
kplay7e_212    log     factor       100           1        1000        kp                 1       0       1
kplay7e_213    log     factor       100           1        1000        kp                 1       0       1
kplay7e_214    log     factor       100           1        1000        kp                 1       0       1
kplay7e_215    log     factor       100           1        1000        kp                 1       0       1
kplay7e_216    log     factor       100           1        1000        kp                 1       0       1
kplay7e_217    log     factor       100           1        1000        kp                 1       0       1
kplay7e_218    log     factor       100           1        1000        kp                 1       0       1
kplay7e_219    log     factor       100           1        1000        kp                 1       0       1
kplay7e_204    log     factor       100           1        1000        kp                 1       0       1
kplay7e_208    log     factor       100           1        1000        kp                 1       0       1
kplay7e_207    log     factor       100           1        1000        kp                 1       0       1
kplay7e_182    log     factor       100           1        1000        kp                 1       0       1
kplay7e_232    log     factor       100           1        1000        kp                 1       0       1
kplay7e_234    log     factor       100           1        1000        kp                 1       0       1
kplay7e_227    log     factor       100           1        1000        kp                 1       0       1
kplay7e_228    log     factor       100           1        1000        kp                 1       0       1
kplay7e_229    log     factor       100           1        1000        kp                 1       0       1
kplay7e_230    log     factor       100           1        1000        kp                 1       0       1
kplay7e_231    log     factor       100           1        1000        kp                 1       0       1
kplay7e_235    log     factor       100           1        1000        kp                 1       0       1
kplay7e_236    log     factor       100           1        1000        kp                 1       0       1
kplay7e_237    log     factor       100           1        1000        kp                 1       0       1
kplay7e_238    log     factor       100           1        1000        kp                 1       0       1
kplay7e_239    log     factor       100           1        1000        kp                 1       0       1
kplay7e_240    log     factor       100           1        1000        kp                 1       0       1
kplay7e_241    log     factor       100           1        1000        kp                 1       0       1
kplay7e_242    log     factor       100           1        1000        kp                 1       0       1
kplay7e_243    log     factor       100           1        1000        kp                 1       0       1
kplay7e_244    log     factor       100           1        1000        kp                 1       0       1
kplay7e_233    log     factor       100           1        1000        kp                 1       0       1