pcf
* control data
restart regularisation
    250  38485      1      0     24  
    1    9 double point  1    0  0
   20.000       -3.0000      0.3  0.03  10     999  lamforgive derforgive
      0.040  4.0  0.001
 0.1
    50  0.001  6  6  0.001  6
1  1  1  1 nojcosaveitn reisaveitn
* singular value decomposition
     1
   250  5.0000000E-07
     0
* svd assist
rjh20_wfc2.pst
rjh20_wfc2.jco
    1    2    0    1    0
* parameter groups
 pargp absolute    0.015  0.0  switch    2.0 parabolic
* parameter data
par1         none  relative   10.000     1.0e-20  1.0e20  pargp  1.0  -10.000      1
par2         none  relative   10.000     1.0e-20  1.0e20  pargp  1.0  -10.000      1
par3         none  relative   10.000     1.0e-20  1.0e20  pargp  1.0  -10.000      1
par4         none  relative   10.000     1.0e-20  1.0e20  pargp  1.0  -10.000      1
par5         none  relative   10.000     1.0e-20  1.0e20  pargp  1.0  -10.000      1
par6         none  relative   10.000     1.0e-20  1.0e20  pargp  1.0  -10.000      1
par7         none  relative   10.000     1.0e-20  1.0e20  pargp  1.0  -10.000      1
par8         none  relative   10.000     1.0e-20  1.0e20  pargp  1.0  -10.000      1
par9         none  relative   10.000     1.0e-20  1.0e20  pargp  1.0  -10.000      1
par10        none  relative   10.000     1.0e-20  1.0e20  pargp  1.0  -10.000      1
par11        none  relative   10.000     1.0e-20  1.0e20  pargp  1.0  -10.000      1
par12        none  relative   10.000     1.0e-20  1.0e20  pargp  1.0  -10.000      1
par13        none  relative   10.000     1.0e-20  1.0e20  pargp  1.0  -10.000      1
par14        none  relative   10.000     1.0e-20  1.0e20  pargp  1.0  -10.000      1
par15        none  relative   10.000     1.0e-20  1.0e20  pargp  1.0  -10.000      1
par16        none  relative   10.000     1.0e-20  1.0e20  pargp  1.0  -10.000      1
par17        none  relative   10.000     1.0e-20  1.0e20  pargp  1.0  -10.000      1
par18        none  relative   10.000     1.0e-20  1.0e20  pargp  1.0  -10.000      1
par19        none  relative   10.000     1.0e-20  1.0e20  pargp  1.0  -10.000      1
par20        none  relative   10.000     1.0e-20  1.0e20  pargp  1.0  -10.000      1
par21        none  relative   10.000     1.0e-20  1.0e20  pargp  1.0  -10.000      1
par22        none  relative   10.000     1.0e-20  1.0e20  pargp  1.0  -10.000      1
par23        none  relative   10.000     1.0e-20  1.0e20  pargp  1.0  -10.000      1
par24        none  relative   10.000     1.0e-20  1.0e20  pargp  1.0  -10.000      1
par25        none  relative   10.000     1.0e-20  1.0e20  pargp  1.0  -10.000      1
par26        none  relative   10.000     1.0e-20  1.0e20  pargp  1.0  -10.000      1
par27        none  relative   10.000     1.0e-20  1.0e20  pargp  1.0  -10.000      1
par28        none  relative   10.000     1.0e-20  1.0e20  pargp  1.0  -10.000      1
par29        none  relative   10.000     1.0e-20  1.0e20  pargp  1.0  -10.000      1
par30        none  relative   10.000     1.0e-20  1.0e20  pargp  1.0  -10.000      1
par31        none  relative   10.000     1.0e-20  1.0e20  pargp  1.0  -10.000      1
par32        none  relative   10.000     1.0e-20  1.0e20  pargp  1.0  -10.000      1
par33        none  relative   10.000     1.0e-20  1.0e20  pargp  1.0  -10.000      1
par34        none  relative   10.000     1.0e-20  1.0e20  pargp  1.0  -10.000      1
par35        none  relative   10.000     1.0e-20  1.0e20  pargp  1.0  -10.000      1
par36        none  relative   10.000     1.0e-20  1.0e20  pargp  1.0  -10.000      1
par37        none  relative   10.000     1.0e-20  1.0e20  pargp  1.0  -10.000      1
par38        none  relative   10.000     1.0e-20  1.0e20  pargp  1.0  -10.000      1
par39        none  relative   10.000     1.0e-20  1.0e20  pargp  1.0  -10.000      1
par40        none  relative   10.000     1.0e-20  1.0e20  pargp  1.0  -10.000      1
par41        none  relative   10.000     1.0e-20  1.0e20  pargp  1.0  -10.000      1
par42        none  relative   10.000     1.0e-20  1.0e20  pargp  1.0  -10.000      1
par43        none  relative   10.000     1.0e-20  1.0e20  pargp  1.0  -10.000      1
par44        none  relative   10.000     1.0e-20  1.0e20  pargp  1.0  -10.000      1
par45        none  relative   10.000     1.0e-20  1.0e20  pargp  1.0  -10.000      1
par46        none  relative   10.000     1.0e-20  1.0e20  pargp  1.0  -10.000      1
par47        none  relative   10.000     1.0e-20  1.0e20  pargp  1.0  -10.000      1
par48        none  relative   10.000     1.0e-20  1.0e20  pargp  1.0  -10.000      1
par49        none  relative   10.000     1.0e-20  1.0e20  pargp  1.0  -10.000      1
par50        none  relative   10.000     1.0e-20  1.0e20  pargp  1.0  -10.000      1
par51        none  relative   10.000     1.0e-20  1.0e20  pargp  1.0  -10.000      1
par52        none  relative   10.000     1.0e-20  1.0e20  pargp  1.0  -10.000      1
par53        none  relative   10.000     1.0e-20  1.0e20  pargp  1.0  -10.000      1
par54        none  relative   10.000     1.0e-20  1.0e20  pargp  1.0  -10.000      1
par55        none  relative   10.000     1.0e-20  1.0e20  pargp  1.0  -10.000      1
par56        none  relative   10.000     1.0e-20  1.0e20  pargp  1.0  -10.000      1
par57        none  relative   10.000     1.0e-20  1.0e20  pargp  1.0  -10.000      1
par58        none  relative   10.000     1.0e-20  1.0e20  pargp  1.0  -10.000      1
par59        none  relative   10.000     1.0e-20  1.0e20  pargp  1.0  -10.000      1
par60        none  relative   10.000     1.0e-20  1.0e20  pargp  1.0  -10.000      1
par61        none  relative   10.000     1.0e-20  1.0e20  pargp  1.0  -10.000      1
par62        none  relative   10.000     1.0e-20  1.0e20  pargp  1.0  -10.000      1
par63        none  relative   10.000     1.0e-20  1.0e20  pargp  1.0  -10.000      1
par64        none  relative   10.000     1.0e-20  1.0e20  pargp  1.0  -10.000      1
par65        none  relative   10.000     1.0e-20  1.0e20  pargp  1.0  -10.000      1
par66        none  relative   10.000     1.0e-20  1.0e20  pargp  1.0  -10.000      1
par67        none  relative   10.000     1.0e-20  1.0e20  pargp  1.0  -10.000      1
par68        none  relative   10.000     1.0e-20  1.0e20  pargp  1.0  -10.000      1
par69        none  relative   10.000     1.0e-20  1.0e20  pargp  1.0  -10.000      1
par70        none  relative   10.000     1.0e-20  1.0e20  pargp  1.0  -10.000      1
par71        none  relative   10.000     1.0e-20  1.0e20  pargp  1.0  -10.000      1
par72        none  relative   10.000     1.0e-20  1.0e20  pargp  1.0  -10.000      1
par73        none  relative   10.000     1.0e-20  1.0e20  pargp  1.0  -10.000      1
par74        none  relative   10.000     1.0e-20  1.0e20  pargp  1.0  -10.000      1
par75        none  relative   10.000     1.0e-20  1.0e20  pargp  1.0  -10.000      1
par76        none  relative   10.000     1.0e-20  1.0e20  pargp  1.0  -10.000      1
par77        none  relative   10.000     1.0e-20  1.0e20  pargp  1.0  -10.000      1
par78        none  relative   10.000     1.0e-20  1.0e20  pargp  1.0  -10.000      1
par79        none  relative   10.000     1.0e-20  1.0e20  pargp  1.0  -10.000      1
par80        none  relative   10.000     1.0e-20  1.0e20  pargp  1.0  -10.000      1
par81        none  relative   10.000     1.0e-20  1.0e20  pargp  1.0  -10.000      1
par82        none  relative   10.000     1.0e-20  1.0e20  pargp  1.0  -10.000      1
par83        none  relative   10.000     1.0e-20  1.0e20  pargp  1.0  -10.000      1
par84        none  relative   10.000     1.0e-20  1.0e20  pargp  1.0  -10.000      1
par85        none  relative   10.000     1.0e-20  1.0e20  pargp  1.0  -10.000      1
par86        none  relative   10.000     1.0e-20  1.0e20  pargp  1.0  -10.000      1
par87        none  relative   10.000     1.0e-20  1.0e20  pargp  1.0  -10.000      1
par88        none  relative   10.000     1.0e-20  1.0e20  pargp  1.0  -10.000      1
par89        none  relative   10.000     1.0e-20  1.0e20  pargp  1.0  -10.000      1
par90        none  relative   10.000     1.0e-20  1.0e20  pargp  1.0  -10.000      1
par91        none  relative   10.000     1.0e-20  1.0e20  pargp  1.0  -10.000      1
par92        none  relative   10.000     1.0e-20  1.0e20  pargp  1.0  -10.000      1
par93        none  relative   10.000     1.0e-20  1.0e20  pargp  1.0  -10.000      1
par94        none  relative   10.000     1.0e-20  1.0e20  pargp  1.0  -10.000      1
par95        none  relative   10.000     1.0e-20  1.0e20  pargp  1.0  -10.000      1
par96        none  relative   10.000     1.0e-20  1.0e20  pargp  1.0  -10.000      1
par97        none  relative   10.000     1.0e-20  1.0e20  pargp  1.0  -10.000      1
par98        none  relative   10.000     1.0e-20  1.0e20  pargp  1.0  -10.000      1
par99        none  relative   10.000     1.0e-20  1.0e20  pargp  1.0  -10.000      1
par100       none  relative   10.000     1.0e-20  1.0e20  pargp  1.0  -10.000      1
par101       none  relative   10.000     1.0e-20  1.0e20  pargp  1.0  -10.000      1
par102       none  relative   10.000     1.0e-20  1.0e20  pargp  1.0  -10.000      1
par103       none  relative   10.000     1.0e-20  1.0e20  pargp  1.0  -10.000      1
par104       none  relative   10.000     1.0e-20  1.0e20  pargp  1.0  -10.000      1
par105       none  relative   10.000     1.0e-20  1.0e20  pargp  1.0  -10.000      1
par106       none  relative   10.000     1.0e-20  1.0e20  pargp  1.0  -10.000      1
par107       none  relative   10.000     1.0e-20  1.0e20  pargp  1.0  -10.000      1
par108       none  relative   10.000     1.0e-20  1.0e20  pargp  1.0  -10.000      1
par109       none  relative   10.000     1.0e-20  1.0e20  pargp  1.0  -10.000      1
par110       none  relative   10.000     1.0e-20  1.0e20  pargp  1.0  -10.000      1
par111       none  relative   10.000     1.0e-20  1.0e20  pargp  1.0  -10.000      1
par112       none  relative   10.000     1.0e-20  1.0e20  pargp  1.0  -10.000      1
par113       none  relative   10.000     1.0e-20  1.0e20  pargp  1.0  -10.000      1
par114       none  relative   10.000     1.0e-20  1.0e20  pargp  1.0  -10.000      1
par115       none  relative   10.000     1.0e-20  1.0e20  pargp  1.0  -10.000      1
par116       none  relative   10.000     1.0e-20  1.0e20  pargp  1.0  -10.000      1
par117       none  relative   10.000     1.0e-20  1.0e20  pargp  1.0  -10.000      1
par118       none  relative   10.000     1.0e-20  1.0e20  pargp  1.0  -10.000      1
par119       none  relative   10.000     1.0e-20  1.0e20  pargp  1.0  -10.000      1
par120       none  relative   10.000     1.0e-20  1.0e20  pargp  1.0  -10.000      1
par121       none  relative   10.000     1.0e-20  1.0e20  pargp  1.0  -10.000      1
par122       none  relative   10.000     1.0e-20  1.0e20  pargp  1.0  -10.000      1
par123       none  relative   10.000     1.0e-20  1.0e20  pargp  1.0  -10.000      1
par124       none  relative   10.000     1.0e-20  1.0e20  pargp  1.0  -10.000      1
par125       none  relative   10.000     1.0e-20  1.0e20  pargp  1.0  -10.000      1
par126       none  relative   10.000     1.0e-20  1.0e20  pargp  1.0  -10.000      1
par127       none  relative   10.000     1.0e-20  1.0e20  pargp  1.0  -10.000      1
par128       none  relative   10.000     1.0e-20  1.0e20  pargp  1.0  -10.000      1
par129       none  relative   10.000     1.0e-20  1.0e20  pargp  1.0  -10.000      1
par130       none  relative   10.000     1.0e-20  1.0e20  pargp  1.0  -10.000      1
par131       none  relative   10.000     1.0e-20  1.0e20  pargp  1.0  -10.000      1
par132       none  relative   10.000     1.0e-20  1.0e20  pargp  1.0  -10.000      1
par133       none  relative   10.000     1.0e-20  1.0e20  pargp  1.0  -10.000      1
par134       none  relative   10.000     1.0e-20  1.0e20  pargp  1.0  -10.000      1
par135       none  relative   10.000     1.0e-20  1.0e20  pargp  1.0  -10.000      1
par136       none  relative   10.000     1.0e-20  1.0e20  pargp  1.0  -10.000      1
par137       none  relative   10.000     1.0e-20  1.0e20  pargp  1.0  -10.000      1
par138       none  relative   10.000     1.0e-20  1.0e20  pargp  1.0  -10.000      1
par139       none  relative   10.000     1.0e-20  1.0e20  pargp  1.0  -10.000      1
par140       none  relative   10.000     1.0e-20  1.0e20  pargp  1.0  -10.000      1
par141       none  relative   10.000     1.0e-20  1.0e20  pargp  1.0  -10.000      1
par142       none  relative   10.000     1.0e-20  1.0e20  pargp  1.0  -10.000      1
par143       none  relative   10.000     1.0e-20  1.0e20  pargp  1.0  -10.000      1
par144       none  relative   10.000     1.0e-20  1.0e20  pargp  1.0  -10.000      1
par145       none  relative   10.000     1.0e-20  1.0e20  pargp  1.0  -10.000      1
par146       none  relative   10.000     1.0e-20  1.0e20  pargp  1.0  -10.000      1
par147       none  relative   10.000     1.0e-20  1.0e20  pargp  1.0  -10.000      1
par148       none  relative   10.000     1.0e-20  1.0e20  pargp  1.0  -10.000      1
par149       none  relative   10.000     1.0e-20  1.0e20  pargp  1.0  -10.000      1
par150       none  relative   10.000     1.0e-20  1.0e20  pargp  1.0  -10.000      1
par151       none  relative   10.000     1.0e-20  1.0e20  pargp  1.0  -10.000      1
par152       none  relative   10.000     1.0e-20  1.0e20  pargp  1.0  -10.000      1
par153       none  relative   10.000     1.0e-20  1.0e20  pargp  1.0  -10.000      1
par154       none  relative   10.000     1.0e-20  1.0e20  pargp  1.0  -10.000      1
par155       none  relative   10.000     1.0e-20  1.0e20  pargp  1.0  -10.000      1
par156       none  relative   10.000     1.0e-20  1.0e20  pargp  1.0  -10.000      1
par157       none  relative   10.000     1.0e-20  1.0e20  pargp  1.0  -10.000      1
par158       none  relative   10.000     1.0e-20  1.0e20  pargp  1.0  -10.000      1
par159       none  relative   10.000     1.0e-20  1.0e20  pargp  1.0  -10.000      1
par160       none  relative   10.000     1.0e-20  1.0e20  pargp  1.0  -10.000      1
par161       none  relative   10.000     1.0e-20  1.0e20  pargp  1.0  -10.000      1
par162       none  relative   10.000     1.0e-20  1.0e20  pargp  1.0  -10.000      1
par163       none  relative   10.000     1.0e-20  1.0e20  pargp  1.0  -10.000      1
par164       none  relative   10.000     1.0e-20  1.0e20  pargp  1.0  -10.000      1
par165       none  relative   10.000     1.0e-20  1.0e20  pargp  1.0  -10.000      1
par166       none  relative   10.000     1.0e-20  1.0e20  pargp  1.0  -10.000      1
par167       none  relative   10.000     1.0e-20  1.0e20  pargp  1.0  -10.000      1
par168       none  relative   10.000     1.0e-20  1.0e20  pargp  1.0  -10.000      1
par169       none  relative   10.000     1.0e-20  1.0e20  pargp  1.0  -10.000      1
par170       none  relative   10.000     1.0e-20  1.0e20  pargp  1.0  -10.000      1
par171       none  relative   10.000     1.0e-20  1.0e20  pargp  1.0  -10.000      1
par172       none  relative   10.000     1.0e-20  1.0e20  pargp  1.0  -10.000      1
par173       none  relative   10.000     1.0e-20  1.0e20  pargp  1.0  -10.000      1
par174       none  relative   10.000     1.0e-20  1.0e20  pargp  1.0  -10.000      1
par175       none  relative   10.000     1.0e-20  1.0e20  pargp  1.0  -10.000      1
par176       none  relative   10.000     1.0e-20  1.0e20  pargp  1.0  -10.000      1
par177       none  relative   10.000     1.0e-20  1.0e20  pargp  1.0  -10.000      1
par178       none  relative   10.000     1.0e-20  1.0e20  pargp  1.0  -10.000      1
par179       none  relative   10.000     1.0e-20  1.0e20  pargp  1.0  -10.000      1
par180       none  relative   10.000     1.0e-20  1.0e20  pargp  1.0  -10.000      1
par181       none  relative   10.000     1.0e-20  1.0e20  pargp  1.0  -10.000      1
par182       none  relative   10.000     1.0e-20  1.0e20  pargp  1.0  -10.000      1
par183       none  relative   10.000     1.0e-20  1.0e20  pargp  1.0  -10.000      1
par184       none  relative   10.000     1.0e-20  1.0e20  pargp  1.0  -10.000      1
par185       none  relative   10.000     1.0e-20  1.0e20  pargp  1.0  -10.000      1
par186       none  relative   10.000     1.0e-20  1.0e20  pargp  1.0  -10.000      1
par187       none  relative   10.000     1.0e-20  1.0e20  pargp  1.0  -10.000      1
par188       none  relative   10.000     1.0e-20  1.0e20  pargp  1.0  -10.000      1
par189       none  relative   10.000     1.0e-20  1.0e20  pargp  1.0  -10.000      1
par190       none  relative   10.000     1.0e-20  1.0e20  pargp  1.0  -10.000      1
par191       none  relative   10.000     1.0e-20  1.0e20  pargp  1.0  -10.000      1
par192       none  relative   10.000     1.0e-20  1.0e20  pargp  1.0  -10.000      1
par193       none  relative   10.000     1.0e-20  1.0e20  pargp  1.0  -10.000      1
par194       none  relative   10.000     1.0e-20  1.0e20  pargp  1.0  -10.000      1
par195       none  relative   10.000     1.0e-20  1.0e20  pargp  1.0  -10.000      1
par196       none  relative   10.000     1.0e-20  1.0e20  pargp  1.0  -10.000      1
par197       none  relative   10.000     1.0e-20  1.0e20  pargp  1.0  -10.000      1
par198       none  relative   10.000     1.0e-20  1.0e20  pargp  1.0  -10.000      1
par199       none  relative   10.000     1.0e-20  1.0e20  pargp  1.0  -10.000      1
par200       none  relative   10.000     1.0e-20  1.0e20  pargp  1.0  -10.000      1
par201       none  relative   10.000     1.0e-20  1.0e20  pargp  1.0  -10.000      1
par202       none  relative   10.000     1.0e-20  1.0e20  pargp  1.0  -10.000      1
par203       none  relative   10.000     1.0e-20  1.0e20  pargp  1.0  -10.000      1
par204       none  relative   10.000     1.0e-20  1.0e20  pargp  1.0  -10.000      1
par205       none  relative   10.000     1.0e-20  1.0e20  pargp  1.0  -10.000      1
par206       none  relative   10.000     1.0e-20  1.0e20  pargp  1.0  -10.000      1
par207       none  relative   10.000     1.0e-20  1.0e20  pargp  1.0  -10.000      1
par208       none  relative   10.000     1.0e-20  1.0e20  pargp  1.0  -10.000      1
par209       none  relative   10.000     1.0e-20  1.0e20  pargp  1.0  -10.000      1
par210       none  relative   10.000     1.0e-20  1.0e20  pargp  1.0  -10.000      1
par211       none  relative   10.000     1.0e-20  1.0e20  pargp  1.0  -10.000      1
par212       none  relative   10.000     1.0e-20  1.0e20  pargp  1.0  -10.000      1
par213       none  relative   10.000     1.0e-20  1.0e20  pargp  1.0  -10.000      1
par214       none  relative   10.000     1.0e-20  1.0e20  pargp  1.0  -10.000      1
par215       none  relative   10.000     1.0e-20  1.0e20  pargp  1.0  -10.000      1
par216       none  relative   10.000     1.0e-20  1.0e20  pargp  1.0  -10.000      1
par217       none  relative   10.000     1.0e-20  1.0e20  pargp  1.0  -10.000      1
par218       none  relative   10.000     1.0e-20  1.0e20  pargp  1.0  -10.000      1
par219       none  relative   10.000     1.0e-20  1.0e20  pargp  1.0  -10.000      1
par220       none  relative   10.000     1.0e-20  1.0e20  pargp  1.0  -10.000      1
par221       none  relative   10.000     1.0e-20  1.0e20  pargp  1.0  -10.000      1
par222       none  relative   10.000     1.0e-20  1.0e20  pargp  1.0  -10.000      1
par223       none  relative   10.000     1.0e-20  1.0e20  pargp  1.0  -10.000      1
par224       none  relative   10.000     1.0e-20  1.0e20  pargp  1.0  -10.000      1
par225       none  relative   10.000     1.0e-20  1.0e20  pargp  1.0  -10.000      1
par226       none  relative   10.000     1.0e-20  1.0e20  pargp  1.0  -10.000      1
par227       none  relative   10.000     1.0e-20  1.0e20  pargp  1.0  -10.000      1
par228       none  relative   10.000     1.0e-20  1.0e20  pargp  1.0  -10.000      1
par229       none  relative   10.000     1.0e-20  1.0e20  pargp  1.0  -10.000      1
par230       none  relative   10.000     1.0e-20  1.0e20  pargp  1.0  -10.000      1
par231       none  relative   10.000     1.0e-20  1.0e20  pargp  1.0  -10.000      1
par232       none  relative   10.000     1.0e-20  1.0e20  pargp  1.0  -10.000      1
par233       none  relative   10.000     1.0e-20  1.0e20  pargp  1.0  -10.000      1
par234       none  relative   10.000     1.0e-20  1.0e20  pargp  1.0  -10.000      1
par235       none  relative   10.000     1.0e-20  1.0e20  pargp  1.0  -10.000      1
par236       none  relative   10.000     1.0e-20  1.0e20  pargp  1.0  -10.000      1
par237       none  relative   10.000     1.0e-20  1.0e20  pargp  1.0  -10.000      1
par238       none  relative   10.000     1.0e-20  1.0e20  pargp  1.0  -10.000      1
par239       none  relative   10.000     1.0e-20  1.0e20  pargp  1.0  -10.000      1
par240       none  relative   10.000     1.0e-20  1.0e20  pargp  1.0  -10.000      1
par241       none  relative   10.000     1.0e-20  1.0e20  pargp  1.0  -10.000      1
par242       none  relative   10.000     1.0e-20  1.0e20  pargp  1.0  -10.000      1
par243       none  relative   10.000     1.0e-20  1.0e20  pargp  1.0  -10.000      1
par244       none  relative   10.000     1.0e-20  1.0e20  pargp  1.0  -10.000      1
par245       none  relative   10.000     1.0e-20  1.0e20  pargp  1.0  -10.000      1
par246       none  relative   10.000     1.0e-20  1.0e20  pargp  1.0  -10.000      1
par247       none  relative   10.000     1.0e-20  1.0e20  pargp  1.0  -10.000      1
par248       none  relative   10.000     1.0e-20  1.0e20  pargp  1.0  -10.000      1
par249       none  relative   10.000     1.0e-20  1.0e20  pargp  1.0  -10.000      1
par250       none  relative   10.000     1.0e-20  1.0e20  pargp  1.0  -10.000      1
* observation groups
stat
lake1
lake2
springs
bh_flow
Head1
Head2
Head4
Head11
Head12
Head19
Head21
Head22
flux
flux1
flux2
regul_kz12
regul_kz11
regul_kp12
regul_kp10e
regul_kp10w
regul_kp9
regul_kp7e
regul_kp7w
* observation data
Mendota_massbal		0.0000         0     stat
Wingra_massbal		0.0000         0     stat
Monona_massbal		0.0000         0     stat
Waubesa_massbal		0.0000         0     stat
Kegonsa_massbal		0.0000         0     stat
Fish_massbal		0.0000         0     stat
Crystal_massbal		0.0000         0     stat
mf_massbalance          0.0000         0     stat
mf_runtime_min          7.0000         0     stat
nwt_iter 	        100.00	       0     stat
knt_bad_pct               0.00         0     stat
pct_subdom_lost           0.00         0     stat
pct_headw_dry             0.00         0     stat
pct_nonheadw_dry          0.00         0     stat
non-zero_sprgs		 18.00         0     stat
obs/simul_sprfl           1.00	       0     stat
lk_mendota              849.48       150     lake1
lk_monona               844.63       150     lake1
lk_wingra               848.22       150     lake1
lk_waubesa              844.51       150     lake1
lk_kegonsa              843.15       150     lake1
fish_lk                 861.37       150     lake2
crystal_lk              871.61       150     lake2
englehart             -13737.6     0.003     springs
syene                 -55728.0     0.003     springs
big_nine              -34819.2     0.003     springs
nursery	              -98928.0     0.003     springs
duck_pond             -81302.4     0.003     springs
council_wingra        -77068.8     0.003     springs
garfoot_obs           -19612.8     0.003     springs
garfoot_braun        -100000.0     0.003     springs
big_donald           -660000.0     0.003     springs
small_donald         -130000.0     0.003     springs
harbor_mendota         -2073.6     0.003     springs
fitz                 -210000.0     0.003     springs
cth                  -440000.0     0.003     springs
nevin                -290000.0     0.003     springs
zeier                 -33955.2     0.003     springs
big_wingra            -22291.2     0.003     springs
pheasant_branch      -300000.0     0.003     springs
token                -670000.0     0.003     springs
mendota_outlt          7983360	       0     flux
monona_outlt	      11128320	       0     flux
waubesa_outlt	      11128320	       0     flux
kegonsa_outlt	      19690000	  .00001     flux
131436_lay6           0.151200	    2500     bh_flow
131436_lay7          -0.108000	    2500     bh_flow
131436_lay8          -0.043200	    2500     bh_flow
131371_lay7          -0.012960	    2500     bh_flow
131371_lay8           0.000000	    2500     bh_flow
131371_lay9           0.000000	    2500     bh_flow
131371_lay10          0.012960	    2500     bh_flow
136049_lay8          -0.057600	    2500     bh_flow
136049_lay9           0.000000	    2500     bh_flow
136049_lay10          0.057600	    2500     bh_flow
131440_lay7           0.005760	    2500     bh_flow
131440_lay8          -0.027360	    2500     bh_flow
131440_lay9           0.000000	    2500     bh_flow
131440_lay10          0.021600	    2500     bh_flow
131466_lay6          -0.000360	    2500     bh_flow
131466_lay7           0.000360	    2500     bh_flow
o1       832.078      15        head4
o2      869.0879      15        head4
o3      728.9405      15        head4
o4       794.078      15        head4
o5      829.2438      15        head4
o6        892.09      15        head4
o7       928.545      15        head4
o8      919.2355      15        head4
o9      962.6889      15        head4
o10     849.6413      15        head4
o11     912.5203      15        head4
o12     864.2775      15        head4
o13       840.04     2.5        head1
o14       817.16     2.5        head1
o15     853.8567      15        head4
o16       867.04      15        head4
o17     867.4733      15        head4
o18     867.3933      15        head4
o19       861.41      15        head11
o20     849.8188      15        head11
o21     850.5384      15        head11
o22     845.3002      15        head11
o23          848      15        head11
o24     845.0064      15        head11
o25     844.8986      15        head11
o26     839.1854      15        head11
o27     843.2288      15        head11
o28       871.01      15        head11
o29        869.4      25        head19
o30        863.2      25        head19
o31        859.7      25        head19
o32        859.4      25        head19
o33        857.1      25        head19
o34          841       0        head12
o35          977       0        head12
o36          840       0        head12
o37          840       0        head12
o38          946       0        head12
o39          960       0        head12
o40          953       0        head12
o41          817       0        head12
o42          882       0        head12
o43          860       0        head12
o44          799       0        head12
o45         1054       0        head12
o46         1047       0        head12
o47          833       0        head12
o48          870       0        head12
o49         1035       0        head12
o50          934       0        head12
o51          844       0        head12
o52        847.5       0        head12
o53          920       0        head12
o54          920       0        head12
o55          845       0        head12
o56          834       0        head12
o57          845       0        head12
o58          851       0        head12
o59          857       0        head12
o60          852       0        head12
o61          833       0        head12
o62          816       0        head12
o63          836       0        head12
o64          889       0        head12
o65          794       0        head12
o66        854.3       0        head12
o67          842       0        head12
o68          826       0        head12
o69          881       0        head12
o70          857       0        head12
o71          841       0        head12
o72          788       0        head12
o73          748       0        head12
o74          863       0        head12
o75        865.8       0        head12
o76          852       0        head12
o77        844.1       0        head12
o78          942       0        head12
o79          914       0        head12
o80         1049       0        head12
o81          916       0        head12
o82          870       0        head12
o83          855       0        head12
o84          837       0        head12
o85          944       0        head12
o86          981       0        head12
o87          907       0        head12
o88          939       0        head12
o89          897       0        head12
o90          966       0        head12
o91          918       0        head12
o92          809       0        head12
o93          867       0        head12
o94          866       0        head12
o95          887       0        head12
o96          862       0        head12
o97          735       0        head12
o98          947       0        head12
o99          743       0        head12
o100         958       0        head12
o101         915       0        head12
o102         926       0        head12
o103         851       0        head12
o104         941       0        head12
o105         929       0        head12
o106         898       0        head12
o107         897       0        head12
o108         847       0        head12
o109         860       0        head12
o110         844       0        head12
o111         911       0        head12
o112         874       0        head12
o113         911       0        head12
o114         951       0        head12
o115         864       0        head12