pcf
* control data
restart regularisation
    2626   12454       7   26031      24
43  8  single  point  1  0  0
20.000       -3.0000      0.3  0.03  12     999  lamforgive    derforgive
5.000000e+000  5.000000e+000  1.000000e-003
1.000000e-001 1 noaui
-1   1.000000e-002  3  3  1.000000e-002  3
1    1    1   1  nojcosaveitn reisaveitn parsaveitn
* singular value decomposition
1
250  5.0000000E-07
0
* parameter groups
kx           relative   1.000000e-002  0.000000e+000  always_3  2.000000e+000  parabolic
kz           relative   1.000000e-002  0.000000e+000  always_3  2.000000e+000  parabolic
kp           relative   1.000000e-002  0.000000e+000  switch    2.000000e+000  parabolic
rch_mult     relative   1.000000e-002  0.000000e+000  always_3  2.000000e+000  parabolic
lkbed_mult   relative   1.000000e-002  0.000000e+000  always_3  2.000000e+000  parabolic
streambed_kv relative   1.000000e-002  0.000000e+000  always_3  2.000000e+000  parabolic
aniso        relative   1.000000e-002  0.050000e+000  switch    2.000000e+000  parabolic
* parameter data
rch_unglaci   log    factor   0.8286505      2.5000e-01    3.0000e+00       rch_mult   1.0  0.0  1
rch_glacial   log    factor   0.8231817      2.5000e-01    3.0000e+00       rch_mult   1.0  0.0  1
gl_kv         log    factor    15.00000      2.5000e-01    1.5000e+01     streambed_kv 1.0  0.0  1
ungl_kv       log    factor    1.301418      2.5000e-01    5.0000e+01     streambed_kv 1.0  0.0  1
sprg_kv	      fixed  factor    40.00000      2.5000e-01    7.0000e+01     streambed_kv 1.0  0.0  1
lkmendot      log    factor   0.8545425      1.0000e-03    1.0000e+02     lkbed_mult   1.0  0.0  1
lkmonona      log    factor   0.7572996      1.0000e-03    1.0000e+02     lkbed_mult   1.0  0.0  1
lkwingra      log    factor   0.9172164      1.0000e-03    1.0000e+02     lkbed_mult   1.0  0.0  1
lkwaubes      log    factor    1.625715      1.0000e-03    1.0000e+02     lkbed_mult   1.0  0.0  1
lkkegons      log    factor   0.8434374      1.0000e-03    1.0000e+02     lkbed_mult   1.0  0.0  1
fishlake      fixed  factor    1.000000      1.0000e-03    1.2000e+00     lkbed_mult   1.0  0.0  1
crystllk      fixed  factor    1.000000      1.0000e-03    1.2000e+00     lkbed_mult   1.0  0.0  1
kppdc_stp     log    factor    6.047817      1.000000        20.000000       kp         1.0  0.0  1
kzpdc_stp     log    factor   0.1000000      1.000000e-001  2.000000e+001    kz         1.0  0.0  1
kpjordan      log    factor   0.3000000      0.300000        30.000000       kp         1.0  0.0  1
kzjordan      log    factor   1.0000000E-02  1.000000e-002  1.000000e+001    kz         1.0  0.0  1
kpstlaw       log    factor    60.00000      1.000000        60.000000       kp         1.0  0.0  1
kzstlaw       log    factor   1.0000000E-02  1.000000e-002  1.000000e+001    kz         1.0  0.0  1
kpuptc        fixed  factor    1.000000      1.000000        10.000000       kp         1.0  0.0  1
kzuptc        fixed  factor   0.5000000      1.000000e-002  1.000000e+001    kz         1.0  0.0  1
kzhitc        log    factor    9.909839      1.000000e-002  1.500000e+002    kz         1.0  0.0  1
kztc_lay7w    log    factor   0.4488034      1.000000e-003  1.000000e+002    kz         1.0  0.0  1
kplowtc       log    factor    1.000000      1.000000          5.00000       kp         1.0  0.0  1
tckhkvratio   log    factor    2.000000      2.000000       10000.000000   aniso        1.0  0.0  1
kzwon         fixed  factor    1.000000      1.000000e-002  1.000000e+001    kz         1.0  0.0  1
kzhiwon       log    factor    10.04197      1.000000e-002  1.000000e+002    kz         1.0  0.0  1
kzwon_lay10w  log    factor   9.4926445E-02  1.000000e-003  1.000000e+002    kz         1.0  0.0  1
kpec          log    factor   1.1340727E-02  1.000000e-004  1.000000e+001    kp         1.0  0.0  1
kx2           fixed  factor    10.00000      1.000000e+000  1.000000e+002    kx         1.0  0.0  1
kz2           fixed  factor    1.000000      1.000000e-003  1.000000e+001    kz         1.0  0.0  1
kx10          log    factor    20.00000      2.000000e+001  3.000000e+002    kx         1.0  0.0  1
kx10ani       log    factor    1.000000      1.000000e+000  1.000000e+002   aniso       1.0  0.0  1
kx11          log    factor    5.000000      1.000000e-002  5.000000e+000    kx         1.0  0.0  1
kx11ani       log    factor    1.000000      1.000000e+000  1.000000e+002   aniso       1.0  0.0  1
kx12          log    factor    41.92798      2.000000e+000  2.000000e+002    kx         1.0  0.0  1
kx12ani       log    factor    1.000000      1.000000e+000  1.000000e+002   aniso       1.0  0.0  1
kx13          log    factor    10.00000      1.000000e-001  1.000000e+001    kx         1.0  0.0  1
kx13ani       log    factor    3.664397      1.000000e+000  1.000000e+002   aniso       1.0  0.0  1
kx14          log    factor   0.5000000      5.000000e-001  5.000000e+001    kx         1.0  0.0  1
kx14ani       log    factor    100.0000      1.000000e+000  1.000000e+002   aniso       1.0  0.0  1
kx15          log    factor   0.1000000      1.000000e-001  1.000000e+001    kx         1.0  0.0  1
kx15ani       log    factor    3.932596      1.000000e+000  1.000000e+002   aniso       1.0  0.0  1
kx16          log    factor    300.0000      3.000000e+000  3.000000e+002    kx         1.0  0.0  1
kx16ani       log    factor    1.190865      1.000000e+000  1.000000e+002   aniso       1.0  0.0  1
kx17          log    factor    98.76352      7.000000e+000  7.000000e+002    kx         1.0  0.0  1
kx17ani       log    factor    2.049598      1.000000e+000  1.000000e+002   aniso       1.0  0.0  1
kx18          log    factor    2419.001      2.000000e+000  2.000000e+004    kx         1.0  0.0  1
kz18          log    factor    2172.621      2.000000e+000  2.000000e+004    kz         1.0  0.0  1
kx19          log    factor    1206.022      2.000000e+000  2.000000e+004    kx         1.0  0.0  1
kz19          log    factor    584.2961      2.000000e+000  2.000000e+004    kz         1.0  0.0  1
kx20          log    factor    934.3410      2.000000e+000  2.000000e+004    kx         1.0  0.0  1
kz20          log    factor    2142.868      2.000000e+000  2.000000e+004    kz         1.0  0.0  1
kx21          log    factor    2.000000      2.000000e+000  2.000000e+003    kx         1.0  0.0  1
kz21          log    factor    2.000000      2.000000e+000  2.000000e+004    kz         1.0  0.0  1
kx22          log    factor    15772.99      2.000000e+000  2.000000e+004    kx         1.0  0.0  1
kz22          log    factor    2817.636      2.000000e+000  2.000000e+004    kz         1.0  0.0  1
kx23          log    factor    3833.991      2.000000e+000  2.000000e+004    kx         1.0  0.0  1
kz23          log    factor    2303.784      2.000000e+000  2.000000e+004    kz         1.0  0.0  1
kx24          log    factor    2578.956      2.000000e+000  2.000000e+004    kx         1.0  0.0  1
kz24          log    factor    2475.220      2.000000e+000  2.000000e+004    kz         1.0  0.0  1
kx25          log    factor    7763.804      2.000000e+000  2.000000e+004    kx         1.0  0.0  1
kz25          log    factor    2492.593      2.000000e+000  2.000000e+004    kz         1.0  0.0  1
kx26          log    factor    96.43609      2.000000e+000  2.000000e+004    kx         1.0  0.0  1
kz26          log    factor    6.483030      2.000000e+000  2.000000e+004    kz         1.0  0.0  1
kplay7e_2     log    factor    100.2128      1.000000         1000.00000            kp         1.0  0.0  1
kplay7e_3     log    factor    99.65758      1.000000         1000.00000            kp         1.0  0.0  1
kplay7e_4     log    factor    89.16517      1.000000         1000.00000            kp         1.0  0.0  1
kplay7e_5     log    factor    100.6500      1.000000         1000.00000            kp         1.0  0.0  1
kplay7e_6     log    factor    97.45540      1.000000         1000.00000            kp         1.0  0.0  1
kplay7e_7     log    factor    103.6510      1.000000         1000.00000            kp         1.0  0.0  1
kplay7e_8     log    factor    94.00566      1.000000         1000.00000            kp         1.0  0.0  1
kplay7e_9     log    factor    96.35218      1.000000         1000.00000            kp         1.0  0.0  1
kplay7e_10    log    factor    106.3856      1.000000         1000.00000            kp         1.0  0.0  1
kplay7e_11    log    factor    115.6975      1.000000         1000.00000            kp         1.0  0.0  1
kplay7e_12    log    factor    99.64148      1.000000         1000.00000            kp         1.0  0.0  1
kplay7e_13    log    factor    95.92006      1.000000         1000.00000            kp         1.0  0.0  1
kplay7e_14    log    factor    102.2374      1.000000         1000.00000            kp         1.0  0.0  1
kplay7e_15    log    factor    108.0983      1.000000         1000.00000            kp         1.0  0.0  1
kplay7e_16    log    factor    99.25031      1.000000         1000.00000            kp         1.0  0.0  1
kplay7e_17    log    factor    56.07349      1.000000         1000.00000            kp         1.0  0.0  1
kplay7e_18    log    factor    95.05465      1.000000         1000.00000            kp         1.0  0.0  1
kplay7e_19    log    factor    96.46201      1.000000         1000.00000            kp         1.0  0.0  1
kplay7e_20    log    factor    91.62800      1.000000         1000.00000            kp         1.0  0.0  1
kplay7e_21    log    factor    130.6462      1.000000         1000.00000            kp         1.0  0.0  1
kplay7e_22    log    factor    96.13764      1.000000         1000.00000            kp         1.0  0.0  1
kplay7e_24    log    factor    103.2318      1.000000         1000.00000            kp         1.0  0.0  1
kplay7e_25    log    factor    97.09751      1.000000         1000.00000            kp         1.0  0.0  1
kplay7e_26    log    factor    99.49043      1.000000         1000.00000            kp         1.0  0.0  1
kplay7e_27    log    factor    95.89604      1.000000         1000.00000            kp         1.0  0.0  1
kplay7e_28    log    factor    99.23008      1.000000         1000.00000            kp         1.0  0.0  1
kplay7e_29    log    factor    93.42929      1.000000         1000.00000            kp         1.0  0.0  1
kplay7e_30    log    factor    91.15998      1.000000         1000.00000            kp         1.0  0.0  1
kplay7e_31    log    factor    95.17461      1.000000         1000.00000            kp         1.0  0.0  1
kplay7e_32    log    factor    113.9178      1.000000         1000.00000            kp         1.0  0.0  1
kplay7e_33    log    factor    99.35796      1.000000         1000.00000            kp         1.0  0.0  1
kplay7e_35    log    factor    101.5963      1.000000         1000.00000            kp         1.0  0.0  1
kplay7e_36    log    factor    90.60693      1.000000         1000.00000            kp         1.0  0.0  1
kplay7e_37    log    factor    97.30041      1.000000         1000.00000            kp         1.0  0.0  1
kplay7e_38    log    factor    96.78546      1.000000         1000.00000            kp         1.0  0.0  1
kplay7e_39    log    factor    98.01120      1.000000         1000.00000            kp         1.0  0.0  1
kplay7e_40    log    factor    84.23252      1.000000         1000.00000            kp         1.0  0.0  1
kplay7e_41    log    factor    88.69824      1.000000         1000.00000            kp         1.0  0.0  1
kplay7e_42    log    factor    93.60507      1.000000         1000.00000            kp         1.0  0.0  1
kplay7e_43    log    factor    90.71688      1.000000         1000.00000            kp         1.0  0.0  1
kplay7e_44    log    factor    100.3111      1.000000         1000.00000            kp         1.0  0.0  1
kplay7e_34    log    factor    89.62141      1.000000         1000.00000            kp         1.0  0.0  1
kplay7e_50    log    factor    101.0370      1.000000         1000.00000            kp         1.0  0.0  1
kplay7e_51    log    factor    98.36295      1.000000         1000.00000            kp         1.0  0.0  1
kplay7e_52    log    factor    92.80467      1.000000         1000.00000            kp         1.0  0.0  1
kplay7e_53    log    factor    90.56077      1.000000         1000.00000            kp         1.0  0.0  1
kplay7e_54    log    factor    94.94081      1.000000         1000.00000            kp         1.0  0.0  1
kplay7e_55    log    factor    100.3177      1.000000         1000.00000            kp         1.0  0.0  1
kplay7e_56    log    factor    92.62212      1.000000         1000.00000            kp         1.0  0.0  1
kplay7e_57    log    factor    101.8703      1.000000         1000.00000            kp         1.0  0.0  1
kplay7e_58    log    factor    93.94832      1.000000         1000.00000            kp         1.0  0.0  1
kplay7e_59    log    factor    85.61703      1.000000         1000.00000            kp         1.0  0.0  1
kplay7e_60    log    factor    101.1028      1.000000         1000.00000            kp         1.0  0.0  1
kplay7e_61    log    factor    95.57109      1.000000         1000.00000            kp         1.0  0.0  1
kplay7e_62    log    factor    86.92183      1.000000         1000.00000            kp         1.0  0.0  1
kplay7e_63    log    factor    92.19210      1.000000         1000.00000            kp         1.0  0.0  1
kplay7e_64    log    factor    88.44538      1.000000         1000.00000            kp         1.0  0.0  1
kplay7e_65    log    factor    106.9443      1.000000         1000.00000            kp         1.0  0.0  1
kplay7e_66    log    factor    89.19448      1.000000         1000.00000            kp         1.0  0.0  1
kplay7e_67    log    factor    89.61079      1.000000         1000.00000            kp         1.0  0.0  1
kplay7e_68    log    factor    100.0993      1.000000         1000.00000            kp         1.0  0.0  1
kplay7e_69    log    factor    94.54081      1.000000         1000.00000            kp         1.0  0.0  1
kplay7e_49    log    factor    105.2505      1.000000         1000.00000            kp         1.0  0.0  1
kplay7e_80    log    factor    108.6567      1.000000         1000.00000            kp         1.0  0.0  1
kplay7e_84    log    factor    99.65152      1.000000         1000.00000            kp         1.0  0.0  1
kplay7e_75    log    factor    102.8067      1.000000         1000.00000            kp         1.0  0.0  1
kplay7e_76    log    factor    92.89289      1.000000         1000.00000            kp         1.0  0.0  1
kplay7e_77    log    factor    93.05949      1.000000         1000.00000            kp         1.0  0.0  1
kplay7e_78    log    factor    99.61105      1.000000         1000.00000            kp         1.0  0.0  1
kplay7e_79    log    factor    100.5346      1.000000         1000.00000            kp         1.0  0.0  1
kplay7e_81    log    factor    111.4722      1.000000         1000.00000            kp         1.0  0.0  1
kplay7e_82    log    factor    103.9561      1.000000         1000.00000            kp         1.0  0.0  1
kplay7e_83    log    factor    133.6042      1.000000         1000.00000            kp         1.0  0.0  1
kplay7e_85    log    factor    116.9750      1.000000         1000.00000            kp         1.0  0.0  1
kplay7e_86    log    factor    123.6978      1.000000         1000.00000            kp         1.0  0.0  1
kplay7e_87    log    factor    91.72430      1.000000         1000.00000            kp         1.0  0.0  1
kplay7e_88    log    factor    95.17899      1.000000         1000.00000            kp         1.0  0.0  1
kplay7e_89    log    factor    105.4703      1.000000         1000.00000            kp         1.0  0.0  1
kplay7e_90    log    factor    98.47962      1.000000         1000.00000            kp         1.0  0.0  1
kplay7e_91    log    factor    94.90400      1.000000         1000.00000            kp         1.0  0.0  1
kplay7e_92    log    factor    89.50622      1.000000         1000.00000            kp         1.0  0.0  1
kplay7e_93    log    factor    103.3745      1.000000         1000.00000            kp         1.0  0.0  1
kplay7e_94    log    factor    96.93534      1.000000         1000.00000            kp         1.0  0.0  1
kplay7e_99    log    factor    96.17431      1.000000         1000.00000            kp         1.0  0.0  1
kplay7e_100   log    factor    91.44183      1.000000         1000.00000            kp         1.0  0.0  1
kplay7e_101   log    factor    85.78110      1.000000         1000.00000            kp         1.0  0.0  1
kplay7e_102   log    factor    84.50815      1.000000         1000.00000            kp         1.0  0.0  1
kplay7e_103   log    factor    97.53160      1.000000         1000.00000            kp         1.0  0.0  1
kplay7e_104   log    factor    86.94046      1.000000         1000.00000            kp         1.0  0.0  1
kplay7e_105   log    factor    93.91898      1.000000         1000.00000            kp         1.0  0.0  1
kplay7e_106   log    factor    101.5496      1.000000         1000.00000            kp         1.0  0.0  1
kplay7e_107   log    factor    102.5356      1.000000         1000.00000            kp         1.0  0.0  1
kplay7e_108   log    factor    90.19128      1.000000         1000.00000            kp         1.0  0.0  1
kplay7e_109   log    factor    106.9868      1.000000         1000.00000            kp         1.0  0.0  1
kplay7e_110   log    factor    119.1816      1.000000         1000.00000            kp         1.0  0.0  1
kplay7e_111   log    factor    102.3709      1.000000         1000.00000            kp         1.0  0.0  1
kplay7e_112   log    factor    99.65761      1.000000         1000.00000            kp         1.0  0.0  1
kplay7e_113   log    factor    99.41929      1.000000         1000.00000            kp         1.0  0.0  1
kplay7e_114   log    factor    97.02780      1.000000         1000.00000            kp         1.0  0.0  1
kplay7e_115   log    factor    104.5330      1.000000         1000.00000            kp         1.0  0.0  1
kplay7e_116   log    factor    104.6931      1.000000         1000.00000            kp         1.0  0.0  1
kplay7e_117   log    factor    98.45383      1.000000         1000.00000            kp         1.0  0.0  1
kplay7e_118   log    factor    104.4591      1.000000         1000.00000            kp         1.0  0.0  1
kplay7e_119   log    factor    108.8073      1.000000         1000.00000            kp         1.0  0.0  1
kplay7e_124   log    factor    99.56029      1.000000         1000.00000            kp         1.0  0.0  1
kplay7e_125   log    factor    101.5765      1.000000         1000.00000            kp         1.0  0.0  1
kplay7e_126   log    factor    99.07501      1.000000         1000.00000            kp         1.0  0.0  1
kplay7e_127   log    factor    83.93157      1.000000         1000.00000            kp         1.0  0.0  1
kplay7e_128   log    factor    99.47445      1.000000         1000.00000            kp         1.0  0.0  1
kplay7e_129   log    factor    115.5434      1.000000         1000.00000            kp         1.0  0.0  1
kplay7e_130   log    factor    100.8385      1.000000         1000.00000            kp         1.0  0.0  1
kplay7e_133   log    factor    109.8402      1.000000         1000.00000            kp         1.0  0.0  1
kplay7e_135   log    factor    92.13312      1.000000         1000.00000            kp         1.0  0.0  1
kplay7e_136   log    factor    100.6969      1.000000         1000.00000            kp         1.0  0.0  1
kplay7e_137   log    factor    89.35352      1.000000         1000.00000            kp         1.0  0.0  1
kplay7e_138   log    factor    95.63448      1.000000         1000.00000            kp         1.0  0.0  1
kplay7e_139   log    factor    110.6876      1.000000         1000.00000            kp         1.0  0.0  1
kplay7e_140   log    factor    88.35649      1.000000         1000.00000            kp         1.0  0.0  1
kplay7e_141   log    factor    122.7835      1.000000         1000.00000            kp         1.0  0.0  1
kplay7e_142   log    factor    105.1195      1.000000         1000.00000            kp         1.0  0.0  1
kplay7e_143   log    factor    105.0423      1.000000         1000.00000            kp         1.0  0.0  1
kplay7e_144   log    factor    90.31660      1.000000         1000.00000            kp         1.0  0.0  1
kplay7e_132   log    factor    100.4210      1.000000         1000.00000            kp         1.0  0.0  1
kplay7e_134   log    factor    95.37485      1.000000         1000.00000            kp         1.0  0.0  1
kplay7e_159   log    factor    91.89081      1.000000         1000.00000            kp         1.0  0.0  1
kplay7e_131   log    factor    94.42833      1.000000         1000.00000            kp         1.0  0.0  1
kplay7e_158   log    factor    114.2596      1.000000         1000.00000            kp         1.0  0.0  1
kplay7e_150   log    factor    92.74396      1.000000         1000.00000            kp         1.0  0.0  1
kplay7e_157   log    factor    90.29338      1.000000         1000.00000            kp         1.0  0.0  1
kplay7e_151   log    factor    111.6657      1.000000         1000.00000            kp         1.0  0.0  1
kplay7e_152   log    factor    98.22629      1.000000         1000.00000            kp         1.0  0.0  1
kplay7e_153   log    factor    104.8947      1.000000         1000.00000            kp         1.0  0.0  1
kplay7e_154   log    factor    93.68592      1.000000         1000.00000            kp         1.0  0.0  1
kplay7e_160   log    factor    92.71597      1.000000         1000.00000            kp         1.0  0.0  1
kplay7e_161   log    factor    103.8532      1.000000         1000.00000            kp         1.0  0.0  1
kplay7e_162   log    factor    96.33313      1.000000         1000.00000            kp         1.0  0.0  1
kplay7e_163   log    factor    99.62166      1.000000         1000.00000            kp         1.0  0.0  1
kplay7e_164   log    factor    110.4008      1.000000         1000.00000            kp         1.0  0.0  1
kplay7e_165   log    factor    88.81505      1.000000         1000.00000            kp         1.0  0.0  1
kplay7e_166   log    factor    89.07928      1.000000         1000.00000            kp         1.0  0.0  1
kplay7e_167   log    factor    117.6613      1.000000         1000.00000            kp         1.0  0.0  1
kplay7e_168   log    factor    102.4523      1.000000         1000.00000            kp         1.0  0.0  1
kplay7e_169   log    factor    96.13358      1.000000         1000.00000            kp         1.0  0.0  1
kplay7e_156   log    factor    94.77798      1.000000         1000.00000            kp         1.0  0.0  1
kplay7e_155   log    factor    97.14405      1.000000         1000.00000            kp         1.0  0.0  1
kplay7e_183   log    factor    103.0028      1.000000         1000.00000            kp         1.0  0.0  1
kplay7e_179   log    factor    96.60392      1.000000         1000.00000            kp         1.0  0.0  1
kplay7e_184   log    factor    112.5416      1.000000         1000.00000            kp         1.0  0.0  1
kplay7e_181   log    factor    94.25487      1.000000         1000.00000            kp         1.0  0.0  1
kplay7e_176   log    factor    89.79610      1.000000         1000.00000            kp         1.0  0.0  1
kplay7e_177   log    factor    79.60304      1.000000         1000.00000            kp         1.0  0.0  1
kplay7e_178   log    factor    86.18408      1.000000         1000.00000            kp         1.0  0.0  1
kplay7e_180   log    factor    105.3339      1.000000         1000.00000            kp         1.0  0.0  1
kplay7e_185   log    factor    95.44685      1.000000         1000.00000            kp         1.0  0.0  1
kplay7e_186   log    factor    107.9322      1.000000         1000.00000            kp         1.0  0.0  1
kplay7e_187   log    factor    89.87860      1.000000         1000.00000            kp         1.0  0.0  1
kplay7e_188   log    factor    92.96795      1.000000         1000.00000            kp         1.0  0.0  1
kplay7e_189   log    factor    103.0086      1.000000         1000.00000            kp         1.0  0.0  1
kplay7e_190   log    factor    106.3442      1.000000         1000.00000            kp         1.0  0.0  1
kplay7e_191   log    factor    106.3517      1.000000         1000.00000            kp         1.0  0.0  1
kplay7e_192   log    factor    99.98336      1.000000         1000.00000            kp         1.0  0.0  1
kplay7e_193   log    factor    107.6232      1.000000         1000.00000            kp         1.0  0.0  1
kplay7e_194   log    factor    106.5680      1.000000         1000.00000            kp         1.0  0.0  1
kplay7e_209   log    factor    95.09633      1.000000         1000.00000            kp         1.0  0.0  1
kplay7e_202   log    factor    58.89073      1.000000         1000.00000            kp         1.0  0.0  1
kplay7e_203   log    factor    73.46648      1.000000         1000.00000            kp         1.0  0.0  1
kplay7e_205   log    factor    101.5973      1.000000         1000.00000            kp         1.0  0.0  1
kplay7e_206   log    factor    101.5329      1.000000         1000.00000            kp         1.0  0.0  1
kplay7e_210   log    factor    97.36118      1.000000         1000.00000            kp         1.0  0.0  1
kplay7e_211   log    factor    96.33514      1.000000         1000.00000            kp         1.0  0.0  1
kplay7e_212   log    factor    99.82861      1.000000         1000.00000            kp         1.0  0.0  1
kplay7e_213   log    factor    79.25259      1.000000         1000.00000            kp         1.0  0.0  1
kplay7e_214   log    factor    96.73202      1.000000         1000.00000            kp         1.0  0.0  1
kplay7e_215   log    factor    104.2244      1.000000         1000.00000            kp         1.0  0.0  1
kplay7e_216   log    factor    126.9476      1.000000         1000.00000            kp         1.0  0.0  1
kplay7e_217   log    factor    96.08638      1.000000         1000.00000            kp         1.0  0.0  1
kplay7e_218   log    factor    103.3707      1.000000         1000.00000            kp         1.0  0.0  1
kplay7e_219   log    factor    114.3693      1.000000         1000.00000            kp         1.0  0.0  1
kplay7e_204   log    factor    106.4779      1.000000         1000.00000            kp         1.0  0.0  1
kplay7e_208   log    factor    99.62005      1.000000         1000.00000            kp         1.0  0.0  1
kplay7e_207   log    factor    102.9994      1.000000         1000.00000            kp         1.0  0.0  1
kplay7e_182   log    factor    105.4575      1.000000         1000.00000            kp         1.0  0.0  1
kplay7e_232   log    factor    98.61208      1.000000         1000.00000            kp         1.0  0.0  1
kplay7e_234   log    factor    118.1415      1.000000         1000.00000            kp         1.0  0.0  1
kplay7e_227   log    factor    93.30780      1.000000         1000.00000            kp         1.0  0.0  1
kplay7e_228   log    factor    95.59874      1.000000         1000.00000            kp         1.0  0.0  1
kplay7e_229   log    factor    99.67019      1.000000         1000.00000            kp         1.0  0.0  1
kplay7e_230   log    factor    100.8717      1.000000         1000.00000            kp         1.0  0.0  1
kplay7e_231   log    factor    116.9367      1.000000         1000.00000            kp         1.0  0.0  1
kplay7e_235   log    factor    98.78419      1.000000         1000.00000            kp         1.0  0.0  1
kplay7e_236   log    factor    93.39583      1.000000         1000.00000            kp         1.0  0.0  1
kplay7e_237   log    factor    112.9231      1.000000         1000.00000            kp         1.0  0.0  1
kplay7e_238   log    factor    104.2436      1.000000         1000.00000            kp         1.0  0.0  1
kplay7e_239   log    factor    99.67297      1.000000         1000.00000            kp         1.0  0.0  1
kplay7e_240   log    factor    93.34148      1.000000         1000.00000            kp         1.0  0.0  1
kplay7e_241   log    factor    85.83917      1.000000         1000.00000            kp         1.0  0.0  1
kplay7e_242   log    factor    94.50671      1.000000         1000.00000            kp         1.0  0.0  1
kplay7e_243   log    factor    99.43927      1.000000         1000.00000            kp         1.0  0.0  1
kplay7e_244   log    factor    97.43377      1.000000         1000.00000            kp         1.0  0.0  1
kplay7e_233   log    factor    101.3104      1.000000         1000.00000            kp         1.0  0.0  1
kplay7e_252   log    factor    107.8002      1.000000         1000.00000            kp         1.0  0.0  1
kplay7e_253   log    factor    80.60506      1.000000         1000.00000            kp         1.0  0.0  1
kplay7e_254   log    factor    100.1588      1.000000         1000.00000            kp         1.0  0.0  1
kplay7e_255   log    factor    103.0666      1.000000         1000.00000            kp         1.0  0.0  1
kplay7e_256   log    factor    90.94125      1.000000         1000.00000            kp         1.0  0.0  1
kplay7e_257   log    factor    100.1343      1.000000         1000.00000            kp         1.0  0.0  1
kplay7e_258   log    factor    98.29219      1.000000         1000.00000            kp         1.0  0.0  1
kplay7e_259   log    factor    92.15028      1.000000         1000.00000            kp         1.0  0.0  1