pcf
* control data
restart estimation
352    103    6    0    6
10    1    single    point    1    0    0
20    -3.0    0.30    0.03    -12    999 lamforgive derforgive
5.0   5.0   1.0e-3
0.1  noaui
40   .005  4   4  .005   4
1    1    1
* singular value decomposition
1
250 1.0e-007
0
* parameter groups
 HorK          relative    0.05   0.0000         switch   1.0000     parabolic
 HANI          relative     1.00000E-02   0.0000         switch   2.0000     parabolic
 VANI          relative     0.05   0.0000         switch   1.0000     parabolic
 RCHG        relative     1.00000E-02   0.0000         switch   2.0000     parabolic
 SFIN        relative     0.01  0.0000         switch   2.0000     parabolic
 SCON        relative     1.00000E-01   0.0000         switch   2.0000     parabolic
* parameter data
OSTP1    log    factor    5.39587    0.1    30    HorK    1    0    1
OSTP2    log    factor    4.77265    0.1    30    HorK    1    0    1
OSTP3    log    factor    5.29397    0.1    30    HorK    1    0    1
OSTP4    log    factor    4.22703    0.1    30    HorK    1    0    1
OSTP5    log    factor    4.2243    0.1    30    HorK    1    0    1
OSTP6    log    factor    5.25543    0.1    30    HorK    1    0    1
OSTP7    log    factor    4.56591    0.1    30    HorK    1    0    1
OSTP8    log    factor    5.6948    0.1    30    HorK    1    0    1
OSTP9    log    factor    5.17578    0.1    30    HorK    1    0    1
OSTP10    log    factor    5.01914    0.1    30    HorK    1    0    1
OSTP11    log    factor    5.09649    0.1    30    HorK    1    0    1
OSTP12    log    factor    4.51292    0.1    30    HorK    1    0    1
OSTP13    log    factor    2.25995    0.1    30    HorK    1    0    1
OSTP14    log    factor    5.63344    0.1    30    HorK    1    0    1
OSTP15    log    factor    6.71703    0.1    30    HorK    1    0    1
OSTP16    log    factor    4.47576    0.1    30    HorK    1    0    1
OSTP17    log    factor    5.00747    0.1    30    HorK    1    0    1
OSTP18    log    factor    3.79809    0.1    30    HorK    1    0    1
OSTP19    log    factor    4.62109    0.1    30    HorK    1    0    1
OSTP20    log    factor    5.7076    0.1    30    HorK    1    0    1
OSTP21    log    factor    5.3658    0.1    30    HorK    1    0    1
OSTP22    log    factor    6.74845    0.1    30    HorK    1    0    1
OSTP23    log    factor    5.35763    0.1    30    HorK    1    0    1
OSTP24    log    factor    5.42916    0.1    30    HorK    1    0    1
OSTP25    log    factor    4.96856    0.1    30    HorK    1    0    1
OSTP26    log    factor    5.34818    0.1    30    HorK    1    0    1
OSTP27    log    factor    5.0314    0.1    30    HorK    1    0    1
UPSH1    log    factor    6.8475    0.1    30    HorK    1    0    1
UPSH2    log    factor    6.99457    0.1    30    HorK    1    0    1
UPSH3    log    factor    7.06451    0.1    30    HorK    1    0    1
UPSH4    log    factor    7.2679    0.1    30    HorK    1    0    1
UPSH5    log    factor    6.241    0.1    30    HorK    1    0    1
UPSH6    log    factor    7.28443    0.1    30    HorK    1    0    1
UPSH7    log    factor    6.79747    0.1    30    HorK    1    0    1
UPSH8    log    factor    7.19147    0.1    30    HorK    1    0    1
UPSH9    log    factor    7.21116    0.1    30    HorK    1    0    1
UPSH10    log    factor    6.27993    0.1    30    HorK    1    0    1
UPSH11    log    factor    6.22886    0.1    30    HorK    1    0    1
UPSH12    log    factor    7.35427    0.1    30    HorK    1    0    1
UPSH13    log    factor    5.12443    0.1    30    HorK    1    0    1
UPSH14    log    factor    7.66157    0.1    30    HorK    1    0    1
UPSH15    log    factor    18.8277    0.1    30    HorK    1    0    1
UPSH16    log    factor    6.15541    0.1    30    HorK    1    0    1
UPSH17    log    factor    6.63953    0.1    30    HorK    1    0    1
UPSH18    log    factor    3.72982    0.1    30    HorK    1    0    1
UPSH19    log    factor    3.36292    0.1    30    HorK    1    0    1
UPSH20    log    factor    15.9866    0.1    30    HorK    1    0    1
UPSH21    log    factor    6.95253    0.1    30    HorK    1    0    1
UPSH22    log    factor    6.63289    0.1    30    HorK    1    0    1
UPSH23    log    factor    7.27389    0.1    30    HorK    1    0    1
UPSH24    log    factor    4.46938    0.1    30    HorK    1    0    1
UPSH25    log    factor    4.99804    0.1    30    HorK    1    0    1
UPSH26    log    factor    6.52328    0.1    30    HorK    1    0    1
UPSH27    log    factor    6.67972    0.1    30    HorK    1    0    1
UPSH28    log    factor    4.91739    0.1    30    HorK    1    0    1
UPSH29    log    factor    5.218    0.1    30    HorK    1    0    1
UPSH30    log    factor    6.68104    0.1    30    HorK    1    0    1
LOSH1    log    factor    6.27296    0.1    30    HorK    1    0    1
LOSH2    log    factor    7.3907    0.1    30    HorK    1    0    1
LOSH3    log    factor    7.00269    0.1    30    HorK    1    0    1
LOSH4    log    factor    6.81328    0.1    30    HorK    1    0    1
LOSH5    log    factor    5.5464    0.1    30    HorK    1    0    1
LOSH6    log    factor    7.30305    0.1    30    HorK    1    0    1
LOSH7    log    factor    6.67896    0.1    30    HorK    1    0    1
LOSH8    log    factor    7.3894    0.1    30    HorK    1    0    1
LOSH9    log    factor    7.49698    0.1    30    HorK    1    0    1
LOSH10    log    factor    6.43013    0.1    30    HorK    1    0    1
LOSH11    log    factor    6.54238    0.1    30    HorK    1    0    1
LOSH12    log    factor    6.32825    0.1    30    HorK    1    0    1
LOSH13    log    factor    6.02729    0.1    30    HorK    1    0    1
LOSH14    log    factor    5.91337    0.1    30    HorK    1    0    1
LOSH15    log    factor    8.67391    0.1    30    HorK    1    0    1
LOSH16    log    factor    6.12722    0.1    30    HorK    1    0    1
LOSH17    log    factor    6.82796    0.1    30    HorK    1    0    1
LOSH18    log    factor    5.60407    0.1    30    HorK    1    0    1
LOSH19    log    factor    5.13683    0.1    30    HorK    1    0    1
LOSH20    log    factor    10.873    0.1    30    HorK    1    0    1
LOSH21    log    factor    6.48435    0.1    30    HorK    1    0    1
LOSH22    log    factor    6.47658    0.1    30    HorK    1    0    1
LOSH23    log    factor    6.55523    0.1    30    HorK    1    0    1
LOSH24    log    factor    4.61933    0.1    30    HorK    1    0    1
LOSH25    log    factor    6.19014    0.1    30    HorK    1    0    1
LOSH26    log    factor    6.11315    0.1    30    HorK    1    0    1
LOSH27    log    factor    6.80464    0.1    30    HorK    1    0    1
LOSH28    log    factor    6.98138    0.1    30    HorK    1    0    1
LOSH29    log    factor    6.80133    0.1    30    HorK    1    0    1
LOSH30    log    factor    20.7419    0.1    30    HorK    1    0    1
ONEO1    log    factor    0.938574    0.1    30    HorK    1    0    1
ONEO2    log    factor    0.823355    0.1    30    HorK    1    0    1
ONEO3    log    factor    0.909389    0.1    30    HorK    1    0    1
ONEO4    log    factor    1.00225    0.1    30    HorK    1    0    1
ONEO5    log    factor    0.797138    0.1    30    HorK    1    0    1
ONEO6    log    factor    0.921138    0.1    30    HorK    1    0    1
ONEO7    log    factor    0.938304    0.1    30    HorK    1    0    1
ONEO8    log    factor    0.901215    0.1    30    HorK    1    0    1
ONEO9    log    factor    0.97151    0.1    30    HorK    1    0    1
ONEO10    log    factor    1.08052    0.1    30    HorK    1    0    1
ONEO11    log    factor    1.00072    0.1    30    HorK    1    0    1
ONEO12    log    factor    1.08717    0.1    30    HorK    1    0    1
ONEO13    log    factor    0.977943    0.1    30    HorK    1    0    1
ONEO14    log    factor    0.793572    0.1    30    HorK    1    0    1
ONEO15    log    factor    5.50456    0.1    30    HorK    1    0    1
ONEO16    log    factor    0.909566    0.1    30    HorK    1    0    1
ONEO17    log    factor    0.983812    0.1    30    HorK    1    0    1
ONEO18    log    factor    0.793133    0.1    30    HorK    1    0    1
ONEO19    log    factor    0.487486    0.1    30    HorK    1    0    1
ONEO20    log    factor    3.17167    0.1    30    HorK    1    0    1
ONEO21    log    factor    1.05947    0.1    30    HorK    1    0    1
ONEO22    log    factor    0.9972    0.1    30    HorK    1    0    1
ONEO23    log    factor    0.993616    0.1    30    HorK    1    0    1
ONEO24    log    factor    0.876618    0.1    30    HorK    1    0    1
ONEO25    log    factor    1.38614    0.1    30    HorK    1    0    1
ONEO26    log    factor    0.987859    0.1    30    HorK    1    0    1
ONEO27    log    factor    0.962288    0.1    30    HorK    1    0    1
ONEO28    log    factor    1.05102    0.1    30    HorK    1    0    1
ONEO29    log    factor    0.988266    0.1    30    HorK    1    0    1
ONEO30    log    factor    1.09483    0.1    30    HorK    1    0    1
CJDN1    log    factor    6.22438    0.1    30    HorK    1    0    1
CJDN2    log    factor    6.76787    0.1    30    HorK    1    0    1
CJDN3    log    factor    7.45457    0.1    30    HorK    1    0    1
CJDN4    log    factor    7.74404    0.1    30    HorK    1    0    1
CJDN5    log    factor    7.53306    0.1    30    HorK    1    0    1
CJDN6    log    factor    7.73647    0.1    30    HorK    1    0    1
CJDN7    log    factor    6.64961    0.1    30    HorK    1    0    1
CJDN8    log    factor    7.83263    0.1    30    HorK    1    0    1
CJDN9    log    factor    6.73995    0.1    30    HorK    1    0    1
CJDN10    log    factor    11.5221    0.1    30    HorK    1    0    1
CJDN11    log    factor    7.02989    0.1    30    HorK    1    0    1
CJDN12    log    factor    6.6661    0.1    30    HorK    1    0    1
CJDN13    log    factor    5.95352    0.1    30    HorK    1    0    1
CJDN14    log    factor    7.21312    0.1    30    HorK    1    0    1
CJDN15    log    factor    21.052    0.1    30    HorK    1    0    1
CJDN16    log    factor    6.61241    0.1    30    HorK    1    0    1
CJDN17    log    factor    6.32228    0.1    30    HorK    1    0    1
CJDN18    log    factor    4.71433    0.1    30    HorK    1    0    1
CJDN19    log    factor    25.4221    0.1    30    HorK    1    0    1
CJDN20    log    factor    18.023    0.1    30    HorK    1    0    1
CJDN21    log    factor    7.35223    0.1    30    HorK    1    0    1
CJDN22    log    factor    6.99998    0.1    30    HorK    1    0    1
CJDN23    log    factor    6.90978    0.1    30    HorK    1    0    1
CJDN24    log    factor    7.80859    0.1    30    HorK    1    0    1
CJDN25    log    factor    8.35513    0.1    30    HorK    1    0    1
CJDN26    log    factor    6.01697    0.1    30    HorK    1    0    1
CJDN27    log    factor    7.31176    0.1    30    HorK    1    0    1
CJDN28    log    factor    7.4699    0.1    30    HorK    1    0    1
CJDN29    log    factor    6.82601    0.1    30    HorK    1    0    1
CJDN30    log    factor    11.066    0.1    30    HorK    1    0    1
hani_101    fixed    factor    1    0.0001    1000    HANI    1    0    1
hani_201    fixed    factor    1    0.0001    1000    HANI    1    0    1
hani_301    fixed    factor    1    0.0001    1000    HANI    1    0    1
hani_401    fixed    factor    1    0.0001    1000    HANI    1    0    1
hani_501    fixed    factor    1    0.0001    1000    HANI    1    0    1
vani_102    log    factor    17.7    1    100    VANI    1    0    1
VANI2_1    log    factor    19.4396    1    100    VANI    1    0    1
VANI2_2    log    factor    24.4429    1    100    VANI    1    0    1
VANI2_3    log    factor    27.9807    1    100    VANI    1    0    1
VANI2_4    log    factor    49.6508    1    100    VANI    1    0    1
VANI2_5    log    factor    26.3782    1    100    VANI    1    0    1
VANI2_6    log    factor    20.7497    1    100    VANI    1    0    1
VANI2_7    log    factor    19.732    1    100    VANI    1    0    1
VANI2_8    log    factor    50.7314    1    100    VANI    1    0    1
VANI2_9    log    factor    19.5127    1    100    VANI    1    0    1
VANI2_10    log    factor    15.5741    1    100    VANI    1    0    1
VANI2_11    log    factor    41.2782    1    100    VANI    1    0    1
VANI2_12    log    factor    36.4721    1    100    VANI    1    0    1
vani_302    log    factor    97.8167    1    100    VANI    1    0    1
VANI4_1    log    factor    32.0229    1    100    VANI    1    0    1
VANI4_2    log    factor    51.9062    1    100    VANI    1    0    1
VANI4_3    log    factor    64.4665    1    100    VANI    1    0    1
VANI4_4    log    factor    28.6602    1    100    VANI    1    0    1
VANI4_5    log    factor    36.4876    1    100    VANI    1    0    1
VANI4_6    log    factor    25.8246    1    100    VANI    1    0    1
VANI4_7    log    factor    29.5667    1    100    VANI    1    0    1
VANI4_8    log    factor    48.7376    1    100    VANI    1    0    1
VANI4_9    log    factor    28.7605    1    100    VANI    1    0    1
VANI4_10    log    factor    17.7135    1    100    VANI    1    0    1
VANI4_11    log    factor    35.6103    1    100    VANI    1    0    1
VANI4_12    log    factor    29.5663    1    100    VANI    1    0    1
vani_502    log    factor    11.769    1    50    VANI    1    0    1
RCH101     log     factor     6.26E-04     1.00E-10     6.27E-04     RCHG     1     0     1
RCH501     tied     factor     6.26E-04      1.00E-10     6.27E-04     RCHG     1     0     1
RCH401     tied     factor    6.26E-04    1.00E-10     6.27E-04     RCHG     1     0     1
RCH001     tied     factor    6.26E-04     1.00E-10     6.27E-04     RCHG     1     0     1
RCH002     tied     factor     6.26E-04      1.00E-10     6.27E-04     RCHG     1     0     1
RCH003     tied     factor    6.26E-04     1.00E-10     6.27E-04     RCHG     1     0     1
RCH004     tied     factor  6.26E-04     1.00E-10     6.27E-04     RCHG     1     0     1
RCH005     tied     factor     6.26E-04     1.00E-10     6.27E-04     RCHG     1     0     1
RCH006     tied     factor     6.26E-04      1.00E-10     6.27E-04     RCHG     1     0     1
RCH007     tied     factor    6.26E-04     1.00E-10     6.27E-04     RCHG     1     0     1
RCH008     tied     factor     6.26E-04     1.00E-10     6.27E-04     RCHG     1     0     1
RCH009     tied     factor     6.26E-04      1.00E-10     6.27E-04     RCHG     1     0     1
RCH010     tied     factor    6.26E-04     1.00E-10     6.27E-04     RCHG     1     0     1
RCH201     tied     factor     6.26E-04     1.00E-10     6.27E-04     RCHG     1     0     1
RCH202     tied     factor     6.26E-04      1.00E-10     6.27E-04     RCHG     1     0     1
RCH203     tied     factor     6.26E-04      1.00E-10     6.27E-04     RCHG     1     0     1
RCH204     tied     factor   6.26E-04     1.00E-10     6.27E-04     RCHG     1     0     1
RCH205     tied     factor     6.26E-04      1.00E-10     6.27E-04     RCHG     1     0     1
RCH206     tied     factor     6.26E-04      1.00E-10     6.27E-04     RCHG     1     0     1
RCH207     tied     factor    6.26E-04      1.00E-10     6.27E-04     RCHG     1     0     1
RCH208     tied     factor    6.26E-04      1.00E-10     6.27E-04     RCHG     1     0     1
RCH209     tied     factor    6.26E-04      1.00E-10     6.27E-04     RCHG     1     0     1
RCH210     tied     factor   6.26E-04      1.00E-10     6.27E-04     RCHG     1     0     1
RCH211     tied     factor    6.26E-04     1.00E-10     6.27E-04     RCHG     1     0     1
RCH212     tied     factor     6.26E-04      1.00E-10     6.27E-04     RCHG     1     0     1
RCH213     tied     factor     6.26E-04      1.00E-10     6.27E-04     RCHG     1     0     1
RCH214     tied     factor   6.26E-04     1.00E-10     6.27E-04     RCHG     1     0     1
RCH215     tied     factor     6.26E-04      1.00E-10     6.27E-04     RCHG     1     0     1
RCH301     tied     factor   6.26E-04      1.00E-10     6.27E-04     RCHG     1     0     1
RCH302     tied     factor    6.26E-04      1.00E-10     6.27E-04     RCHG     1     0     1
RCH303     tied     factor     6.26E-04     1.00E-10     6.27E-04     RCHG     1     0     1
RCH304     tied     factor     6.26E-04      1.00E-10     6.27E-04     RCHG     1     0     1
RCH305     tied     factor    6.26E-04      1.00E-10     6.27E-04     RCHG     1     0     1
sfr_1001    fixed    factor    1.0599    0.00001    20    SCON    1    0    1
sfr_1002    fixed    factor    1.11034    0.00001    20    SCON    1    0    1
sfr_1003    fixed    factor    1.06747    0.00001    20    SCON    1    0    1
sfr_1004    fixed    factor    0.86466    0.00001    20    SCON    1    0    1
sfr_1005    fixed    factor    0.774107    0.00001    20    SCON    1    0    1
sfr_1006    fixed    factor    0.492089    0.00001    20    SCON    1    0    1
sfr_1007    fixed    factor    0.656995    0.00001    20    SCON    1    0    1
sfr_1008    fixed    factor    1.95336    0.00001    20    SCON    1    0    1
sfr_1009    fixed    factor    0.809441    0.00001    20    SCON    1    0    1
sfr_1010    fixed    factor    0.802403    0.00001    20    SCON    1    0    1
sfr_1011    fixed    factor    0.847976    0.00001    20    SCON    1    0    1
sfr_1012    fixed    factor    1.23351    0.00001    20    SCON    1    0    1
sfr_1013    fixed    factor    0.94864    0.00001    20    SCON    1    0    1
sfr_1014    fixed    factor    1.70023    0.00001    20    SCON    1    0    1
sfr_1015    fixed    factor    0.190276    0.0000001    20    SCON    1    0    1
sfr_1016    fixed    factor    0.791077    0.00001    20    SCON    1    0    1
sfr_1017    fixed    factor    0.994837    0.00001    20    SCON    1    0    1
sfr_1018    fixed    factor    0.405252    0.00001    20    SCON    1    0    1
sfr_1019    fixed    factor    0.130686    0.00001    20    SCON    1    0    1
sfr_1020    fixed    factor    0.737504    0.00001    20    SCON    1    0    1
sfr_1021    fixed    factor    1.26758    0.00001    20    SCON    1    0    1
sfr_1022    fixed    factor    1.11216    0.00001    20    SCON    1    0    1
sfr_1023    fixed    factor    0.115025    0.00001    20    SCON    1    0    1
sfr_1024    fixed    factor    0.135662    0.00001    20    SCON    1    0    1
sfr_1025    fixed    factor    0.866335    0.00001    20    SCON    1    0    1
sfr_1026    fixed    factor    0.924975    0.00001    20    SCON    1    0    1
sfr_1027    fixed    factor    0.99498    0.00001    20    SCON    1    0    1
sfr_1028    fixed    factor    1.39323    0.00001    20    SCON    1    0    1
sfr_1029    fixed    factor    2.3457    0.00001    20    SCON    1    0    1
sfr_1030    fixed    factor    4.65913    0.00001    20    SCON    1    0    1
sfr_1031    fixed    factor    0.586764    0.00001    20    SCON    1    0    1
sfr_1032    fixed    factor    1.44156    0.00001    20    SCON    1    0    1
sfr_1033    fixed    factor    2.06755    0.00001    20    SCON    1    0    1
sfr_1034    fixed    factor    0.852011    0.00001    20    SCON    1    0    1
sfr_1035    fixed    factor    0.97106    0.00001    20    SCON    1    0    1
sfr_1036    fixed    factor    0.917745    0.00001    20    SCON    1    0    1
sfr_1037    fixed    factor    0.263833    0.00001    20    SCON    1    0    1
sfr_1038    fixed    factor    1.32361    0.00001    20    SCON    1    0    1
sfr_1039    fixed    factor    1.50595    0.00001    20    SCON    1    0    1
sfr_1040    fixed    factor    0.786477    0.00001    20    SCON    1    0    1
sfr_1041    fixed    factor    0.959719    0.00001    20    SCON    1    0    1
sfr_1042    fixed    factor    0.570817    0.00001    20    SCON    1    0    1
sfr_1043    fixed    factor    0.825986    0.00001    20    SCON    1    0    1
sfr_1044    fixed    factor    1.30517    0.00001    20    SCON    1    0    1
sfr_1045    fixed    factor    1.11197    0.00001    20    SCON    1    0    1
sfr_1046    fixed    factor    0.925655    0.00001    20    SCON    1    0    1
sfr_1047    fixed    factor    1.07912    0.00001    20    SCON    1    0    1
sfr_1048    fixed    factor    0.807196    0.00001    20    SCON    1    0    1
sfr_1049    fixed    factor    0.318485    0.00001    20    SCON    1    0    1
sfr_1050    fixed    factor    1.20674    0.00001    20    SCON    1    0    1
sfr_1051    fixed    factor    1.17727    0.00001    20    SCON    1    0    1
sfr_1052    fixed    factor    1.01541    0.00001    20    SCON    1    0    1
sfr_1053    fixed    factor    1.02151    0.00001    20    SCON    1    0    1
sfr_1054    fixed    factor    0.895266    0.00001    20    SCON    1    0    1
sfr_1055    fixed    factor    0.82744    0.00001    20    SCON    1    0    1
sfr_1056    fixed    factor    1.16446    0.00001    20    SCON    1    0    1
sfr_1057    fixed    factor    1.49516    0.00001    20    SCON    1    0    1
sfr_1058    fixed    factor    0.370913    0.00001    20    SCON    1    0    1
sfr_1059    fixed    factor    4.27992    0.00001    20    SCON    1    0    1
sfr_1060    fixed    factor    0.909256    0.00001    20    SCON    1    0    1
sfr_1061    fixed    factor    1.80737    0.00001    20    SCON    1    0    1
sfr_1062    fixed    factor    0.276684    0.00001    20    SCON    1    0    1
sfr_1063    fixed    factor    1.3181    0.00001    20    SCON    1    0    1
sfr_1064    fixed    factor    1.74127    0.00001    20    SCON    1    0    1
sfr_1065    fixed    factor    0.682765    0.00001    20    SCON    1    0    1
sfr_1066    fixed    factor    7.42649    0.00001    20    SCON    1    0    1
sfr_1067    fixed    factor    0.936186    0.00001    20    SCON    1    0    1
sfr_1068    fixed    factor    2.08112    0.00001    20    SCON    1    0    1
sfr_1069    fixed    factor    0.679434    0.00001    20    SCON    1    0    1
sfr_1070    fixed    factor    0.989227    0.00001    20    SCON    1    0    1
sfr_2007    fixed    factor    1.70023    0.00001    20    SCON    1    0    1
sfr_2008    fixed    factor    1.70023    0.00001    20    SCON    1    0    1
sfr_2022    fixed    factor    1.01554    0.00001    20    SCON    1    0    1
sfr_2027    fixed    factor    0.96759    0.00001    20    SCON    1    0    1
sfr_2036    fixed    factor    0.914694    0.00001    20    SCON    1    0    1
sfr_2037    fixed    factor    0.802279    0.00001    20    SCON    1    0    1
sfr_2045    fixed    factor    0.816783    0.00001    20    SCON    1    0    1
sfr_2046    fixed    factor    1.00352    0.00001    20    SCON    1    0    1
sfr_2048    fixed    factor    0.853763    0.00001    20    SCON    1    0    1
sfr_2049    fixed    factor    0.849334    0.00001    20    SCON    1    0    1
sfr_2051    fixed    factor    0.816616    0.00001    20    SCON    1    0    1
sfr_2053    fixed    factor    0.904378    0.00001    20    SCON    1    0    1
sfr_2056    fixed    factor    1.00938    0.00001    20    SCON    1    0    1
sfr_2070    fixed    factor    0.935748    0.00001    20    SCON    1    0    1
sfr_2001    fixed    factor    0.774107    0.00001    20    SCON    1    0    1
sfr_2002    fixed    factor    0.774107    0.00001    20    SCON    1    0    1
sfr_2003    fixed    factor    0.847976    0.00001    20    SCON    1    0    1
sfr_2004    fixed    factor    0.809441    0.00001    20    SCON    1    0    1
sfr_2005    fixed    factor    0.847976    0.00001    20    SCON    1    0    1
sfr_2006    fixed    factor    0.809441    0.00001    20    SCON    1    0    1
sfr_2009    fixed    factor    0.276684    0.00001    20    SCON    1    0    1
sfr_2010    fixed    factor    7.42649    0.00001    20    SCON    1    0    1
sfr_2011    fixed    factor    0.679434    0.00001    20    SCON    1    0    1
sfr_2012    fixed    factor    2.08112    0.00001    20    SCON    1    0    1
sfr_2013    fixed    factor    0.989227    0.00001    20    SCON    1    0    1
sfr_2014    fixed    factor    1.74127    0.00001    20    SCON    1    0    1
sfr_2015    fixed    factor    1.49516    0.00001    20    SCON    1    0    1
sfr_2016    fixed    factor    0.682765    0.00001    20    SCON    1    0    1
sfr_2017    fixed    factor    0.936186    0.00001    20    SCON    1    0    1
sfr_2018    fixed    factor    1.49516    0.00001    20    SCON    1    0    1
sfr_2019    fixed    factor    1.3181    0.00001    20    SCON    1    0    1
sfr_2020    fixed    factor    0.909256    0.00001    20    SCON    1    0    1
sfr_2021    fixed    factor    4.27992    0.00001    20    SCON    1    0    1
sfr_2023    fixed    factor    0.370913    0.00001    20    SCON    1    0    1
sfr_2024    fixed    factor    0.370913    0.00001    20    SCON    1    0    1
sfr_2025    fixed    factor    2.06755    0.00001    20    SCON    1    0    1
sfr_2026    fixed    factor    2.3457    0.00001    20    SCON    1    0    1
sfr_2028    fixed    factor    2.3457    0.00001    20    SCON    1    0    1
sfr_2029    fixed    factor    2.06755    0.00001    20    SCON    1    0    1
sfr_2030    fixed    factor    0.263833    0.00001    20    SCON    1    0    1
sfr_2031    fixed    factor    0.852011    0.00001    20    SCON    1    0    1
sfr_2032    fixed    factor    0.852011    0.00001    20    SCON    1    0    1
sfr_2033    fixed    factor    1.32361    0.00001    20    SCON    1    0    1
sfr_2034    fixed    factor    0.263833    0.00001    20    SCON    1    0    1
sfr_2035    fixed    factor    1.32361    0.00001    20    SCON    1    0    1
sfr_2038    fixed    factor    1.30517    0.00001    20    SCON    1    0    1
sfr_2039    fixed    factor    0.807196    0.00001    20    SCON    1    0    1
sfr_2040    fixed    factor    0.318485    0.00001    20    SCON    1    0    1
sfr_2041    fixed    factor    1.17727    0.00001    20    SCON    1    0    1
sfr_2042    fixed    factor    0.318485    0.00001    20    SCON    1    0    1
sfr_2043    fixed    factor    1.30517    0.00001    20    SCON    1    0    1
sfr_2044    fixed    factor    0.807196    0.00001    20    SCON    1    0    1
sfr_2047    fixed    factor    1.17727    0.00001    20    SCON    1    0    1
sfr_2050    fixed    factor    1.16446    0.00001    20    SCON    1    0    1
sfr_2052    fixed    factor    0.82744    0.00001    20    SCON    1    0    1
sfr_2054    fixed    factor    0.82744    0.00001    20    SCON    1    0    1
sfr_2055    fixed    factor    1.16446    0.00001    20    SCON    1    0    1
sfr_2057    fixed    factor    1.80737    0.00001    20    SCON    1    0    1
sfr_2058    fixed    factor    4.27992    0.00001    20    SCON    1    0    1
sfr_2059    fixed    factor    0.909256    0.00001    20    SCON    1    0    1
sfr_2060    fixed    factor    1.80737    0.00001    20    SCON    1    0    1
sfr_2061    fixed    factor    0.276684    0.00001    20    SCON    1    0    1
sfr_2062    fixed    factor    1.3181    0.00001    20    SCON    1    0    1
sfr_2063    fixed    factor    1.74127    0.00001    20    SCON    1    0    1
sfr_2064    fixed    factor    7.42649    0.00001    20    SCON    1    0    1
sfr_2065    fixed    factor    7.42649    0.00001    20    SCON    1    0    1
sfr_2066    fixed    factor    0.936186    0.00001    20    SCON    1    0    1
sfr_2067    fixed    factor    2.08112    0.00001    20    SCON    1    0    1
sfr_2068    fixed    factor    0.679434    0.00001    20    SCON    1    0    1
sfr_2069    fixed    factor    0.958276    0.00001    20    SCON    1    0    1
RCH501    RCH101 
RCH401    RCH101 
RCH001    RCH101 
RCH002    RCH101 
RCH003    RCH101 
RCH004    RCH101 
RCH005    RCH101 
RCH006    RCH101 
RCH007    RCH101 
RCH008    RCH101 
RCH009    RCH101 
RCH010    RCH101 
RCH201    RCH101 
RCH202    RCH101 
RCH203    RCH101 
RCH204    RCH101 
RCH205    RCH101 
RCH206    RCH101 
RCH207    RCH101 
RCH208    RCH101 
RCH209    RCH101 
RCH210    RCH101 
RCH211    RCH101 
RCH212    RCH101 
RCH213    RCH101 
RCH214    RCH101 
RCH215    RCH101 
RCH301    RCH101 
RCH302    RCH101 
RCH303    RCH101 
RCH304    RCH101 
RCH305    RCH101
* observation groups
 ostp
 upsh
 losh
 oneo
 cjdn
 Q_dif
* observation data
MN119816    324.0841207    2    OSTP
MN160815    325.2148735    2    OSTP
MN220769    309.4940567    2    OSTP
MN582380    316.6443158    2    OSTP
MN601284    323.1728132    2    OSTP
MN695881    305.4800366    2    OSTP
MN698912    305.9250229    2    OSTP
MN220952    301.10637    2    UPSH
MN220950    305.4465102    2    UPSH
MN485610    315.041146    2    UPSH
MN105002    322.7522097    2    UPSH
MN132660    306.8363304    2    UPSH
MN135609    327.6287717    2    UPSH
MN135625    312.910698    2    UPSH
MN192592    318.4943615    2    UPSH
MN220692    300.4419384    2    UPSH
MN220861    314.7516001    2    UPSH
MN227495    305.2971655    2    UPSH
MN228527    323.0417556    2    UPSH
MN437191    314.5992076    2    UPSH
MN446332    326.1932338    2    UPSH
MN451075    303.2398659    2    UPSH
MN463987    313.6970436    2    UPSH
MN591905    321.2130448    2    UPSH
MN601282    323.5355075    2    UPSH
MN601283    295.5958549    2    UPSH
MN643873    302.0512039    2    UPSH
MN674099    301.6824139    2    UPSH
MN752200    300.0091436    2    UPSH
MN752251    297.0009144    2    UPSH
MN658967    315.266687    2    UPSH
MN170880    315.3946967    2    LOSH
MN104959    310.6918622    2    LOSH