pcf
* control data
restart regularisation
     352     103       6     175       9
10    1    single    point    1    0    0
20    -3.0    0.30    0.03    -12    999 lamforgive derforgive
5.0   5.0   1.0e-3
0.1  noaui
40   .005  4   4  .005   4
1    1    1
* singular value decomposition
1
250 1.0e-007
0
* parameter groups
 HorK          relative    0.05   0.0000         switch   1.0000     parabolic
 HANI          relative     1.00000E-02   0.0000         switch   2.0000     parabolic
 VANI          relative     0.05   0.0000         switch   1.0000     parabolic
 RCHG        relative     1.00000E-02   0.0000         switch   2.0000     parabolic
 SFIN        relative     0.01  0.0000         switch   2.0000     parabolic
 SCON        relative     1.00000E-01   0.0000         switch   2.0000     parabolic
* parameter data
OSTP1     log     factor     5.02607037     0.1     30     HorK     1     0     1
OSTP2     log     factor     5.02607037     0.1     30     HorK     1     0     1
OSTP3     log     factor     5.02607037     0.1     30     HorK     1     0     1
OSTP4     log     factor     5.02607037     0.1     30     HorK     1     0     1
OSTP5     log     factor     5.02607037     0.1     30     HorK     1     0     1
OSTP6     log     factor     5.02607037     0.1     30     HorK     1     0     1
OSTP7     log     factor     5.02607037     0.1     30     HorK     1     0     1
OSTP8     log     factor     5.02607037     0.1     30     HorK     1     0     1
OSTP9     log     factor     5.02607037     0.1     30     HorK     1     0     1
OSTP10     log     factor     5.02607037     0.1     30     HorK     1     0     1
OSTP11     log     factor     5.02607037     0.1     30     HorK     1     0     1
OSTP12     log     factor     5.02607037     0.1     30     HorK     1     0     1
OSTP13     log     factor     5.02607037     0.1     30     HorK     1     0     1
OSTP14     log     factor     5.02607037     0.1     30     HorK     1     0     1
OSTP15     log     factor     5.02607037     0.1     30     HorK     1     0     1
OSTP16     log     factor     5.02607037     0.1     30     HorK     1     0     1
OSTP17     log     factor     5.02607037     0.1     30     HorK     1     0     1
OSTP18     log     factor     5.02607037     0.1     30     HorK     1     0     1
OSTP19     log     factor     5.02607037     0.1     30     HorK     1     0     1
OSTP20     log     factor     5.02607037     0.1     30     HorK     1     0     1
OSTP21     log     factor     5.02607037     0.1     30     HorK     1     0     1
OSTP22     log     factor     5.02607037     0.1     30     HorK     1     0     1
OSTP23     log     factor     5.02607037     0.1     30     HorK     1     0     1
OSTP24     log     factor     5.02607037     0.1     30     HorK     1     0     1
OSTP25     log     factor     5.02607037     0.1     30     HorK     1     0     1
OSTP26     log     factor     5.02607037     0.1     30     HorK     1     0     1
OSTP27     log     factor     5.02607037     0.1     30     HorK     1     0     1
UPSH1     log     factor     7.019907     0.1     30     HorK     1     0     1
UPSH2     log     factor     7.019907     0.1     30     HorK     1     0     1
UPSH3     log     factor     7.019907     0.1     30     HorK     1     0     1
UPSH4     log     factor     7.019907     0.1     30     HorK     1     0     1
UPSH5     log     factor     7.019907     0.1     30     HorK     1     0     1
UPSH6     log     factor     7.019907     0.1     30     HorK     1     0     1
UPSH7     log     factor     7.019907     0.1     30     HorK     1     0     1
UPSH8     log     factor     7.019907     0.1     30     HorK     1     0     1
UPSH9     log     factor     7.019907     0.1     30     HorK     1     0     1
UPSH10     log     factor     7.019907     0.1     30     HorK     1     0     1
UPSH11     log     factor     7.019907     0.1     30     HorK     1     0     1
UPSH12     log     factor     7.019907     0.1     30     HorK     1     0     1
UPSH13     log     factor     7.019907     0.1     30     HorK     1     0     1
UPSH14     log     factor     7.019907     0.1     30     HorK     1     0     1
UPSH15     log     factor     7.019907     0.1     30     HorK     1     0     1
UPSH16     log     factor     7.019907     0.1     30     HorK     1     0     1
UPSH17     log     factor     7.019907     0.1     30     HorK     1     0     1
UPSH18     log     factor     7.019907     0.1     30     HorK     1     0     1
UPSH19     log     factor     7.019907     0.1     30     HorK     1     0     1
UPSH20     log     factor     7.019907     0.1     30     HorK     1     0     1
UPSH21     log     factor     7.019907     0.1     30     HorK     1     0     1
UPSH22     log     factor     7.019907     0.1     30     HorK     1     0     1
UPSH23     log     factor     7.019907     0.1     30     HorK     1     0     1
UPSH24     log     factor     7.019907     0.1     30     HorK     1     0     1
UPSH25     log     factor     7.019907     0.1     30     HorK     1     0     1
UPSH26     log     factor     7.019907     0.1     30     HorK     1     0     1
UPSH27     log     factor     7.019907     0.1     30     HorK     1     0     1
UPSH28     log     factor     7.019907     0.1     30     HorK     1     0     1
UPSH29     log     factor     7.019907     0.1     30     HorK     1     0     1
UPSH30     log     factor     7.019907     0.1     30     HorK     1     0     1
LOSH1     log     factor     7.138228667     0.1     30     HorK     1     0     1
LOSH2     log     factor     7.138228667     0.1     30     HorK     1     0     1
LOSH3     log     factor     7.138228667     0.1     30     HorK     1     0     1
LOSH4     log     factor     7.138228667     0.1     30     HorK     1     0     1
LOSH5     log     factor     7.138228667     0.1     30     HorK     1     0     1
LOSH6     log     factor     7.138228667     0.1     30     HorK     1     0     1
LOSH7     log     factor     7.138228667     0.1     30     HorK     1     0     1
LOSH8     log     factor     7.138228667     0.1     30     HorK     1     0     1
LOSH9     log     factor     7.138228667     0.1     30     HorK     1     0     1
LOSH10     log     factor     7.138228667     0.1     30     HorK     1     0     1
LOSH11     log     factor     7.138228667     0.1     30     HorK     1     0     1
LOSH12     log     factor     7.138228667     0.1     30     HorK     1     0     1
LOSH13     log     factor     7.138228667     0.1     30     HorK     1     0     1
LOSH14     log     factor     7.138228667     0.1     30     HorK     1     0     1
LOSH15     log     factor     7.138228667     0.1     30     HorK     1     0     1
LOSH16     log     factor     7.138228667     0.1     30     HorK     1     0     1
LOSH17     log     factor     7.138228667     0.1     30     HorK     1     0     1
LOSH18     log     factor     7.138228667     0.1     30     HorK     1     0     1
LOSH19     log     factor     7.138228667     0.1     30     HorK     1     0     1
LOSH20     log     factor     7.138228667     0.1     30     HorK     1     0     1
LOSH21     log     factor     7.138228667     0.1     30     HorK     1     0     1
LOSH22     log     factor     7.138228667     0.1     30     HorK     1     0     1
LOSH23     log     factor     7.138228667     0.1     30     HorK     1     0     1
LOSH24     log     factor     7.138228667     0.1     30     HorK     1     0     1
LOSH25     log     factor     7.138228667     0.1     30     HorK     1     0     1
LOSH26     log     factor     7.138228667     0.1     30     HorK     1     0     1
LOSH27     log     factor     7.138228667     0.1     30     HorK     1     0     1
LOSH28     log     factor     7.138228667     0.1     30     HorK     1     0     1
LOSH29     log     factor     7.138228667     0.1     30     HorK     1     0     1
LOSH30     log     factor     7.138228667     0.1     30     HorK     1     0     1
ONEO1     log     factor     1.179677733     0.1     30     HorK     1     0     1
ONEO2     log     factor     1.179677733     0.1     30     HorK     1     0     1
ONEO3     log     factor     1.179677733     0.1     30     HorK     1     0     1
ONEO4     log     factor     1.179677733     0.1     30     HorK     1     0     1
ONEO5     log     factor     1.179677733     0.1     30     HorK     1     0     1
ONEO6     log     factor     1.179677733     0.1     30     HorK     1     0     1
ONEO7     log     factor     1.179677733     0.1     30     HorK     1     0     1
ONEO8     log     factor     1.179677733     0.1     30     HorK     1     0     1
ONEO9     log     factor     1.179677733     0.1     30     HorK     1     0     1
ONEO10     log     factor     1.179677733     0.1     30     HorK     1     0     1
ONEO11     log     factor     1.179677733     0.1     30     HorK     1     0     1
ONEO12     log     factor     1.179677733     0.1     30     HorK     1     0     1
ONEO13     log     factor     1.179677733     0.1     30     HorK     1     0     1
ONEO14     log     factor     1.179677733     0.1     30     HorK     1     0     1
ONEO15     log     factor     1.179677733     0.1     30     HorK     1     0     1
ONEO16     log     factor     1.179677733     0.1     30     HorK     1     0     1
ONEO17     log     factor     1.179677733     0.1     30     HorK     1     0     1
ONEO18     log     factor     1.179677733     0.1     30     HorK     1     0     1
ONEO19     log     factor     1.179677733     0.1     30     HorK     1     0     1
ONEO20     log     factor     1.179677733     0.1     30     HorK     1     0     1
ONEO21     log     factor     1.179677733     0.1     30     HorK     1     0     1
ONEO22     log     factor     1.179677733     0.1     30     HorK     1     0     1
ONEO23     log     factor     1.179677733     0.1     30     HorK     1     0     1
ONEO24     log     factor     1.179677733     0.1     30     HorK     1     0     1
ONEO25     log     factor     1.179677733     0.1     30     HorK     1     0     1
ONEO26     log     factor     1.179677733     0.1     30     HorK     1     0     1
ONEO27     log     factor     1.179677733     0.1     30     HorK     1     0     1
ONEO28     log     factor     1.179677733     0.1     30     HorK     1     0     1
ONEO29     log     factor     1.179677733     0.1     30     HorK     1     0     1
ONEO30     log     factor     1.179677733     0.1     30     HorK     1     0     1
CJDN1     log     factor     8.710992667     0.1     30     HorK     1     0     1
CJDN2     log     factor     8.710992667     0.1     30     HorK     1     0     1
CJDN3     log     factor     8.710992667     0.1     30     HorK     1     0     1
CJDN4     log     factor     8.710992667     0.1     30     HorK     1     0     1
CJDN5     log     factor     8.710992667     0.1     30     HorK     1     0     1
CJDN6     log     factor     8.710992667     0.1     30     HorK     1     0     1
CJDN7     log     factor     8.710992667     0.1     30     HorK     1     0     1
CJDN8     log     factor     8.710992667     0.1     30     HorK     1     0     1
CJDN9     log     factor     8.710992667     0.1     30     HorK     1     0     1
CJDN10     log     factor     8.710992667     0.1     30     HorK     1     0     1
CJDN11     log     factor     8.710992667     0.1     30     HorK     1     0     1
CJDN12     log     factor     8.710992667     0.1     30     HorK     1     0     1
CJDN13     log     factor     8.710992667     0.1     30     HorK     1     0     1
CJDN14     log     factor     8.710992667     0.1     30     HorK     1     0     1
CJDN15     log     factor     8.710992667     0.1     30     HorK     1     0     1
CJDN16     log     factor     8.710992667     0.1     30     HorK     1     0     1
CJDN17     log     factor     8.710992667     0.1     30     HorK     1     0     1
CJDN18     log     factor     8.710992667     0.1     30     HorK     1     0     1
CJDN19     log     factor     8.710992667     0.1     30     HorK     1     0     1
CJDN20     log     factor     8.710992667     0.1     30     HorK     1     0     1
CJDN21     log     factor     8.710992667     0.1     30     HorK     1     0     1
CJDN22     log     factor     8.710992667     0.1     30     HorK     1     0     1
CJDN23     log     factor     8.710992667     0.1     30     HorK     1     0     1
CJDN24     log     factor     8.710992667     0.1     30     HorK     1     0     1
CJDN25     log     factor     8.710992667     0.1     30     HorK     1     0     1
CJDN26     log     factor     8.710992667     0.1     30     HorK     1     0     1
CJDN27     log     factor     8.710992667     0.1     30     HorK     1     0     1
CJDN28     log     factor     8.710992667     0.1     30     HorK     1     0     1
CJDN29     log     factor     8.710992667     0.1     30     HorK     1     0     1
CJDN30     log     factor     8.710992667     0.1     30     HorK     1     0     1
hani_101     fixed     factor     1     0.0001     1000     HANI     1     0     1
hani_201     fixed     factor     1     0.0001     1000     HANI     1     0     1
hani_301     fixed     factor     1     0.0001     1000     HANI     1     0     1
hani_401     fixed     factor     1     0.0001     1000     HANI     1     0     1
hani_501     fixed     factor     1     0.0001     1000     HANI     1     0     1
vani_102     log     factor     17.7     1     100     VANI     1     0     1
VANI2_1     log     factor     17.7     1     100     VANI     1     0     1
VANI2_2     log     factor     17.7     1     100     VANI     1     0     1
VANI2_3     log     factor     17.7     1     100     VANI     1     0     1
VANI2_4     log     factor     17.7     1     100     VANI     1     0     1
VANI2_5     log     factor     17.7     1     100     VANI     1     0     1
VANI2_6     log     factor     17.7     1     100     VANI     1     0     1
VANI2_7     log     factor     17.7     1     100     VANI     1     0     1
VANI2_8     log     factor     17.7     1     100     VANI     1     0     1
VANI2_9     log     factor     17.7     1     100     VANI     1     0     1
VANI2_10     log     factor     17.7     1     100     VANI     1     0     1
VANI2_11     log     factor     17.7     1     100     VANI     1     0     1
VANI2_12     log     factor     17.7     1     100     VANI     1     0     1
vani_302     log     factor     97.8167     1     100     VANI     1     0     1
VANI4_1     log     factor     35.77690833     1     100     VANI     1     0     1
VANI4_2     log     factor     35.77690833     1     100     VANI     1     0     1
VANI4_3     log     factor     35.77690833     1     100     VANI     1     0     1
VANI4_4     log     factor     35.77690833     1     100     VANI     1     0     1
VANI4_5     log     factor     35.77690833     1     100     VANI     1     0     1
VANI4_6     log     factor     35.77690833     1     100     VANI     1     0     1
VANI4_7     log     factor     35.77690833     1     100     VANI     1     0     1
VANI4_8     log     factor     35.77690833     1     100     VANI     1     0     1
VANI4_9     log     factor     35.77690833     1     100     VANI     1     0     1
VANI4_10     log     factor     35.77690833     1     100     VANI     1     0     1
VANI4_11     log     factor     35.77690833     1     100     VANI     1     0     1
VANI4_12     log     factor     35.77690833     1     100     VANI     1     0     1
vani_502     log     factor     11.769     1     50     VANI     1     0     1
RCH101     log     factor     6.26E-04     1.00E-10     6.27E-04     RCHG     1     0     1
RCH501     tied     factor     6.26E-04      1.00E-10     6.27E-04     RCHG     1     0     1
RCH401     tied     factor    6.26E-04    1.00E-10     6.27E-04     RCHG     1     0     1
RCH001     tied     factor    6.26E-04     1.00E-10     6.27E-04     RCHG     1     0     1
RCH002     tied     factor     6.26E-04      1.00E-10     6.27E-04     RCHG     1     0     1
RCH003     tied     factor    6.26E-04     1.00E-10     6.27E-04     RCHG     1     0     1
RCH004     tied     factor  6.26E-04     1.00E-10     6.27E-04     RCHG     1     0     1
RCH005     tied     factor     6.26E-04     1.00E-10     6.27E-04     RCHG     1     0     1
RCH006     tied     factor     6.26E-04      1.00E-10     6.27E-04     RCHG     1     0     1
RCH007     tied     factor    6.26E-04     1.00E-10     6.27E-04     RCHG     1     0     1
RCH008     tied     factor     6.26E-04     1.00E-10     6.27E-04     RCHG     1     0     1
RCH009     tied     factor     6.26E-04      1.00E-10     6.27E-04     RCHG     1     0     1
RCH010     tied     factor    6.26E-04     1.00E-10     6.27E-04     RCHG     1     0     1
RCH201     tied     factor     6.26E-04     1.00E-10     6.27E-04     RCHG     1     0     1
RCH202     tied     factor     6.26E-04      1.00E-10     6.27E-04     RCHG     1     0     1
RCH203     tied     factor     6.26E-04      1.00E-10     6.27E-04     RCHG     1     0     1
RCH204     tied     factor   6.26E-04     1.00E-10     6.27E-04     RCHG     1     0     1
RCH205     tied     factor     6.26E-04      1.00E-10     6.27E-04     RCHG     1     0     1
RCH206     tied     factor     6.26E-04      1.00E-10     6.27E-04     RCHG     1     0     1
RCH207     tied     factor    6.26E-04      1.00E-10     6.27E-04     RCHG     1     0     1
RCH208     tied     factor    6.26E-04      1.00E-10     6.27E-04     RCHG     1     0     1
RCH209     tied     factor    6.26E-04      1.00E-10     6.27E-04     RCHG     1     0     1
RCH210     tied     factor   6.26E-04      1.00E-10     6.27E-04     RCHG     1     0     1
RCH211     tied     factor    6.26E-04     1.00E-10     6.27E-04     RCHG     1     0     1
RCH212     tied     factor     6.26E-04      1.00E-10     6.27E-04     RCHG     1     0     1
RCH213     tied     factor     6.26E-04      1.00E-10     6.27E-04     RCHG     1     0     1
RCH214     tied     factor   6.26E-04     1.00E-10     6.27E-04     RCHG     1     0     1
RCH215     tied     factor     6.26E-04      1.00E-10     6.27E-04     RCHG     1     0     1
RCH301     tied     factor   6.26E-04      1.00E-10     6.27E-04     RCHG     1     0     1
RCH302     tied     factor    6.26E-04      1.00E-10     6.27E-04     RCHG     1     0     1
RCH303     tied     factor     6.26E-04     1.00E-10     6.27E-04     RCHG     1     0     1
RCH304     tied     factor     6.26E-04      1.00E-10     6.27E-04     RCHG     1     0     1
RCH305     tied     factor    6.26E-04      1.00E-10     6.27E-04     RCHG     1     0     1
sfr_1001    fixed    factor    1.0599    0.00001    20    SCON    1    0    1
sfr_1002    fixed    factor    1.11034    0.00001    20    SCON    1    0    1
sfr_1003    fixed    factor    1.06747    0.00001    20    SCON    1    0    1
sfr_1004    fixed    factor    0.86466    0.00001    20    SCON    1    0    1
sfr_1005    fixed    factor    0.774107    0.00001    20    SCON    1    0    1
sfr_1006    fixed    factor    0.492089    0.00001    20    SCON    1    0    1
sfr_1007    fixed    factor    0.656995    0.00001    20    SCON    1    0    1
sfr_1008    fixed    factor    1.95336    0.00001    20    SCON    1    0    1
sfr_1009    fixed    factor    0.809441    0.00001    20    SCON    1    0    1
sfr_1010    fixed    factor    0.802403    0.00001    20    SCON    1    0    1
sfr_1011    fixed    factor    0.847976    0.00001    20    SCON    1    0    1
sfr_1012    fixed    factor    1.23351    0.00001    20    SCON    1    0    1
sfr_1013    fixed    factor    0.94864    0.00001    20    SCON    1    0    1
sfr_1014    fixed    factor    1.70023    0.00001    20    SCON    1    0    1
sfr_1015    fixed    factor    0.190276    0.0000001    20    SCON    1    0    1
sfr_1016    fixed    factor    0.791077    0.00001    20    SCON    1    0    1
sfr_1017    fixed    factor    0.994837    0.00001    20    SCON    1    0    1
sfr_1018    fixed    factor    0.405252    0.00001    20    SCON    1    0    1
sfr_1019    fixed    factor    0.130686    0.00001    20    SCON    1    0    1
sfr_1020    fixed    factor    0.737504    0.00001    20    SCON    1    0    1
sfr_1021    fixed    factor    1.26758    0.00001    20    SCON    1    0    1
sfr_1022    fixed    factor    1.11216    0.00001    20    SCON    1    0    1
sfr_1023    fixed    factor    0.115025    0.00001    20    SCON    1    0    1
sfr_1024    fixed    factor    0.135662    0.00001    20    SCON    1    0    1
sfr_1025    fixed    factor    0.866335    0.00001    20    SCON    1    0    1
sfr_1026    fixed    factor    0.924975    0.00001    20    SCON    1    0    1
sfr_1027    fixed    factor    0.99498    0.00001    20    SCON    1    0    1
sfr_1028    fixed    factor    1.39323    0.00001    20    SCON    1    0    1
sfr_1029    fixed    factor    2.3457    0.00001    20    SCON    1    0    1
sfr_1030    fixed    factor    4.65913    0.00001    20    SCON    1    0    1
sfr_1031    fixed    factor    0.586764    0.00001    20    SCON    1    0    1
sfr_1032    fixed    factor    1.44156    0.00001    20    SCON    1    0    1
sfr_1033    fixed    factor    2.06755    0.00001    20    SCON    1    0    1
sfr_1034    fixed    factor    0.852011    0.00001    20    SCON    1    0    1
sfr_1035    fixed    factor    0.97106    0.00001    20    SCON    1    0    1
sfr_1036    fixed    factor    0.917745    0.00001    20    SCON    1    0    1
sfr_1037    fixed    factor    0.263833    0.00001    20    SCON    1    0    1
sfr_1038    fixed    factor    1.32361    0.00001    20    SCON    1    0    1
sfr_1039    fixed    factor    1.50595    0.00001    20    SCON    1    0    1
sfr_1040    fixed    factor    0.786477    0.00001    20    SCON    1    0    1
sfr_1041    fixed    factor    0.959719    0.00001    20    SCON    1    0    1
sfr_1042    fixed    factor    0.570817    0.00001    20    SCON    1    0    1
sfr_1043    fixed    factor    0.825986    0.00001    20    SCON    1    0    1
sfr_1044    fixed    factor    1.30517    0.00001    20    SCON    1    0    1
sfr_1045    fixed    factor    1.11197    0.00001    20    SCON    1    0    1
sfr_1046    fixed    factor    0.925655    0.00001    20    SCON    1    0    1
sfr_1047    fixed    factor    1.07912    0.00001    20    SCON    1    0    1
sfr_1048    fixed    factor    0.807196    0.00001    20    SCON    1    0    1
sfr_1049    fixed    factor    0.318485    0.00001    20    SCON    1    0    1
sfr_1050    fixed    factor    1.20674    0.00001    20    SCON    1    0    1
sfr_1051    fixed    factor    1.17727    0.00001    20    SCON    1    0    1
sfr_1052    fixed    factor    1.01541    0.00001    20    SCON    1    0    1
sfr_1053    fixed    factor    1.02151    0.00001    20    SCON    1    0    1
sfr_1054    fixed    factor    0.895266    0.00001    20    SCON    1    0    1
sfr_1055    fixed    factor    0.82744    0.00001    20    SCON    1    0    1
sfr_1056    fixed    factor    1.16446    0.00001    20    SCON    1    0    1
sfr_1057    fixed    factor    1.49516    0.00001    20    SCON    1    0    1
sfr_1058    fixed    factor    0.370913    0.00001    20    SCON    1    0    1
sfr_1059    fixed    factor    4.27992    0.00001    20    SCON    1    0    1
sfr_1060    fixed    factor    0.909256    0.00001    20    SCON    1    0    1
sfr_1061    fixed    factor    1.80737    0.00001    20    SCON    1    0    1
sfr_1062    fixed    factor    0.276684    0.00001    20    SCON    1    0    1
sfr_1063    fixed    factor    1.3181    0.00001    20    SCON    1    0    1
sfr_1064    fixed    factor    1.74127    0.00001    20    SCON    1    0    1
sfr_1065    fixed    factor    0.682765    0.00001    20    SCON    1    0    1
sfr_1066    fixed    factor    7.42649    0.00001    20    SCON    1    0    1
sfr_1067    fixed    factor    0.936186    0.00001    20    SCON    1    0    1
sfr_1068    fixed    factor    2.08112    0.00001    20    SCON    1    0    1
sfr_1069    fixed    factor    0.679434    0.00001    20    SCON    1    0    1
sfr_1070    fixed    factor    0.989227    0.00001    20    SCON    1    0    1
sfr_2007    fixed    factor    1.70023    0.00001    20    SCON    1    0    1
sfr_2008    fixed    factor    1.70023    0.00001    20    SCON    1    0    1
sfr_2022    fixed    factor    1.01554    0.00001    20    SCON    1    0    1
sfr_2027    fixed    factor    0.96759    0.00001    20    SCON    1    0    1
sfr_2036    fixed    factor    0.914694    0.00001    20    SCON    1    0    1
sfr_2037    fixed    factor    0.802279    0.00001    20    SCON    1    0    1
sfr_2045    fixed    factor    0.816783    0.00001    20    SCON    1    0    1
sfr_2046    fixed    factor    1.00352    0.00001    20    SCON    1    0    1
sfr_2048    fixed    factor    0.853763    0.00001    20    SCON    1    0    1
sfr_2049    fixed    factor    0.849334    0.00001    20    SCON    1    0    1
sfr_2051    fixed    factor    0.816616    0.00001    20    SCON    1    0    1
sfr_2053    fixed    factor    0.904378    0.00001    20    SCON    1    0    1
sfr_2056    fixed    factor    1.00938    0.00001    20    SCON    1    0    1
sfr_2070    fixed    factor    0.935748    0.00001    20    SCON    1    0    1
sfr_2001    fixed    factor    0.774107    0.00001    20    SCON    1    0    1
sfr_2002    fixed    factor    0.774107    0.00001    20    SCON    1    0    1
sfr_2003    fixed    factor    0.847976    0.00001    20    SCON    1    0    1
sfr_2004    fixed    factor    0.809441    0.00001    20    SCON    1    0    1
sfr_2005    fixed    factor    0.847976    0.00001    20    SCON    1    0    1
sfr_2006    fixed    factor    0.809441    0.00001    20    SCON    1    0    1
sfr_2009    fixed    factor    0.276684    0.00001    20    SCON    1    0    1
sfr_2010    fixed    factor    7.42649    0.00001    20    SCON    1    0    1
sfr_2011    fixed    factor    0.679434    0.00001    20    SCON    1    0    1
sfr_2012    fixed    factor    2.08112    0.00001    20    SCON    1    0    1
sfr_2013    fixed    factor    0.989227    0.00001    20    SCON    1    0    1
sfr_2014    fixed    factor    1.74127    0.00001    20    SCON    1    0    1
sfr_2015    fixed    factor    1.49516    0.00001    20    SCON    1    0    1
sfr_2016    fixed    factor    0.682765    0.00001    20    SCON    1    0    1
sfr_2017    fixed    factor    0.936186    0.00001    20    SCON    1    0    1
sfr_2018    fixed    factor    1.49516    0.00001    20    SCON    1    0    1
sfr_2019    fixed    factor    1.3181    0.00001    20    SCON    1    0    1
sfr_2020    fixed    factor    0.909256    0.00001    20    SCON    1    0    1
sfr_2021    fixed    factor    4.27992    0.00001    20    SCON    1    0    1
sfr_2023    fixed    factor    0.370913    0.00001    20    SCON    1    0    1
sfr_2024    fixed    factor    0.370913    0.00001    20    SCON    1    0    1
sfr_2025    fixed    factor    2.06755    0.00001    20    SCON    1    0    1
sfr_2026    fixed    factor    2.3457    0.00001    20    SCON    1    0    1
sfr_2028    fixed    factor    2.3457    0.00001    20    SCON    1    0    1
sfr_2029    fixed    factor    2.06755    0.00001    20    SCON    1    0    1
sfr_2030    fixed    factor    0.263833    0.00001    20    SCON    1    0    1
sfr_2031    fixed    factor    0.852011    0.00001    20    SCON    1    0    1
sfr_2032    fixed    factor    0.852011    0.00001    20    SCON    1    0    1
sfr_2033    fixed    factor    1.32361    0.00001    20    SCON    1    0    1
sfr_2034    fixed    factor    0.263833    0.00001    20    SCON    1    0    1
sfr_2035    fixed    factor    1.32361    0.00001    20    SCON    1    0    1
sfr_2038    fixed    factor    1.30517    0.00001    20    SCON    1    0    1
sfr_2039    fixed    factor    0.807196    0.00001    20    SCON    1    0    1
sfr_2040    fixed    factor    0.318485    0.00001    20    SCON    1    0    1
sfr_2041    fixed    factor    1.17727    0.00001    20    SCON    1    0    1
sfr_2042    fixed    factor    0.318485    0.00001    20    SCON    1    0    1
sfr_2043    fixed    factor    1.30517    0.00001    20    SCON    1    0    1
sfr_2044    fixed    factor    0.807196    0.00001    20    SCON    1    0    1
sfr_2047    fixed    factor    1.17727    0.00001    20    SCON    1    0    1
sfr_2050    fixed    factor    1.16446    0.00001    20    SCON    1    0    1
sfr_2052    fixed    factor    0.82744    0.00001    20    SCON    1    0    1
sfr_2054    fixed    factor    0.82744    0.00001    20    SCON    1    0    1
sfr_2055    fixed    factor    1.16446    0.00001    20    SCON    1    0    1
sfr_2057    fixed    factor    1.80737    0.00001    20    SCON    1    0    1
sfr_2058    fixed    factor    4.27992    0.00001    20    SCON    1    0    1
sfr_2059    fixed    factor    0.909256    0.00001    20    SCON    1    0    1
sfr_2060    fixed    factor    1.80737    0.00001    20    SCON    1    0    1
sfr_2061    fixed    factor    0.276684    0.00001    20    SCON    1    0    1
sfr_2062    fixed    factor    1.3181    0.00001    20    SCON    1    0    1
sfr_2063    fixed    factor    1.74127    0.00001    20    SCON    1    0    1
sfr_2064    fixed    factor    7.42649    0.00001    20    SCON    1    0    1
sfr_2065    fixed    factor    7.42649    0.00001    20    SCON    1    0    1
sfr_2066    fixed    factor    0.936186    0.00001    20    SCON    1    0    1