pcf
* control data
restart estimation
11 8326 5 0 3
1  1  double  point  1  0  0
1.000000e+001  2.000000e+000  3.000000e-001  1.000000e-002  10
2.000000e+002  1.000000e+001  1.000000e-003
1.000000e-001 noaui
20  1.000000e-002  3  3  1.000000e-002  3
1  1  1
* parameter groups
Kh     relative   1.000000e-002  0.000000e+000  always_3  2.000000e+000  parabolic
Base   relative   1.000000e-002  0.000000e+000  always_3  2.000000e+000  parabolic
Khi    relative   1.000000e-002  0.000000e+000  always_3  2.000000e+000  parabolic
Rch    relative   1.000000e-002  0.000000e+000  always_3  2.000000e+000  parabolic
Res    relative   1.000000e-002  0.000000e+000  always_3  2.000000e+000  parabolic
* parameter data
Kglobal 	log   factor     5.44853	 .7	 70	Kh     1.0      0.0 1
Base    	fixed  factor    -200	       -2000	-20	Base   1.0      0.0 1
KabvMAQU	log   factor     2.93294	 .7	 70	Khi    1.0      0.0 1
RabvMAQU	fixed  relative  -0.00000	-1.50000	 1.50000	Rch    -.001     0.0 1
NorthLowR	fixed  relative  -0.00000	-5.00000	 0.00100	Rch    -.001     0.0 1
Rglobal_ 	none  factor     1.612000	 .121136	 12.1136	Rch    -.001     0.0 1
LakeR   	fixed  factor    0.457000        0.005           5.0	        Rch    -.001     0.0 1
HighPermR       none   factor    0.457000        0.0001          5.0	        Rch    -.001     0.0 1
lakeCratio	fixed  factor    4.0	 1	 100	Res    1.0      0.0 1
resistance	fixed  factor   .5	 .01	 50.0	Res    1.0      0.0 1
horicon		fixed   factor   1000	 100	 10000	Khi    1.0      0.0 1
* observation groups
GWobs
WCR
Streamflow
* observation data
DN-1355 911.5	10.000000 GWobs
DN-0441 893	10.000000 GWobs
DN-0005 832.6	10.000000 GWobs
DN1297 848.1	10.000000 GWobs
DN0105 842.5	10.000000 GWobs
DN-0146 829.5	10.000000 GWobs
DN-1136 918.6	10.000000 GWobs
DN-0064 870	10.000000 GWobs
DN1289 958.2	10.000000 GWobs
DN-0927 925.8	10.000000 GWobs
JE-0849 846.4	10.000000 GWobs
WK-1301 783.1	10.000000 GWobs
WW-0908 821	10.000000 GWobs
WW-0083 921.3	10.000000 GWobs
WW-0009 887.6	10.000000 GWobs
DG-0081 860.1	10.000000 GWobs
FL-0659 772.4	10.000000 GWobs
GL-0032 844.1	10.000000 GWobs
CO-0620 788.2	10.000000 GWobs
CO-0134 964.2	10.000000 GWobs
Dane--LV667 949	0.800000 WCR
Dane--MQ875 1030	0.800000 WCR
Dane--RZ136 928	0.800000 WCR
Dane--NG614 907	0.800000 WCR
LJ533--TV279 907.667	0.800000 WCR
Dane--SP989 919	0.800000 WCR
Dane--OO570 880	0.800000 WCR
Dane--TQ005 906	0.800000 WCR
TR290--TT716 923.308	0.800000 WCR
TQ524--TS259 940.333	0.800000 WCR
TQ063--NO000 901.5	0.800000 WCR
Dane--VL782 902	0.800000 WCR
LJ537--LJ540 927.25	0.800000 WCR
OQ296--OQ289 953.25	0.800000 WCR
Dane--TP738 1000	0.800000 WCR
TU754--NO000 938	0.800000 WCR
Dane--RR531 883	0.800000 WCR
Dane--VK888 925	0.800000 WCR
LJ507--NV870 940.6	0.800000 WCR
NP448--NP450 897.333	0.800000 WCR
Dane--OT323 964	0.800000 WCR
Dane--RZ403 926	0.800000 WCR
Dane--RR552 913	0.800000 WCR
LJ509--NQ359 944.25	0.800000 WCR
LJ510--NO000 874	0.800000 WCR
Dane--NV829 948	0.800000 WCR
Dane--LM983 938	0.800000 WCR
Dane--RW332 948	0.800000 WCR
Dane--RR585 928	0.800000 WCR
OQ099--RX762 944.462	0.800000 WCR
NA516--RZ833 919.65	0.800000 WCR
MT169--SI706 895.333	0.800000 WCR
MB519--MO517 952.636	0.800000 WCR
MQ817--RX269 965.667	0.800000 WCR
Dane--SA431 933	0.800000 WCR
Dane--RI830 954	0.800000 WCR
RX390--QR439 932.053	0.800000 WCR
RX604--SA089 906.636	0.800000 WCR
SA314--NO000 848.5	0.800000 WCR
Dane--WH693 917	0.800000 WCR
Dane--RF325 953	0.800000 WCR
Dane--MK640 928	0.800000 WCR
Dane--RX432 868	0.800000 WCR
NG874--RX567 931.5	0.800000 WCR
LL857--MQ853 945.545	0.800000 WCR
LX344--MW865 924.4	0.800000 WCR
Dane--RX356 924	0.800000 WCR
Dane--TQ518 946	0.800000 WCR
RW823--RX593 894.833	0.800000 WCR
Dane--TQ743 919	0.800000 WCR
Dane--TF006 1003	0.800000 WCR
Dane--TQ016 950	0.800000 WCR
Dane--NG872 955	0.800000 WCR
KY387--TP749 925.333	0.800000 WCR
Dane--TU609 739	0.800000 WCR
Dane--LV280 895	0.800000 WCR
Dane--TP562 970	0.800000 WCR
Dane--MW819 966	0.800000 WCR
TR128--NO000 903	0.800000 WCR
Dane--NP471 877	0.800000 WCR
Dane--RX846 898	0.800000 WCR
Dane--WI125 915	0.800000 WCR
Dane--TT372 743	0.800000 WCR
RX280--NO000 920	0.800000 WCR
Dane--RX864 936	0.800000 WCR
Dane--VK362 957	0.800000 WCR
Dane--WG798 851	0.800000 WCR
Dane--SX197 956	0.800000 WCR
Dane--TU809 939	0.800000 WCR
Dane--TF026 891	0.800000 WCR
Dane--ME496 905	0.800000 WCR
RY551--NO000 980.5	0.800000 WCR
QJ049--NO000 943.5	0.800000 WCR
Dane--TR982 1000	0.800000 WCR
Dane--RJ856 871	0.800000 WCR
LV001--NO000 921	0.800000 WCR
Dane--RX379 936	0.800000 WCR
RI872--NO000 919	0.800000 WCR
Dane--RZ550 927	0.800000 WCR
Dane--LZ956 884	0.800000 WCR
Dane--MJ874 907	0.800000 WCR
Dane--QJ048 956	0.800000 WCR
Dane--TP202 990	0.800000 WCR
LJ900--NO000 872.5	0.800000 WCR
Dane--VL828 946	0.800000 WCR
Dane--RX277 949	0.800000 WCR
Dane--VL346 914	0.800000 WCR
Dane--TM595 888	0.800000 WCR
Dane--RW786 877	0.800000 WCR
Dane--TV892 873	0.800000 WCR
Dane--TK293 856	0.800000 WCR
SP997--SX210 917.333	0.800000 WCR
Dane--SX241 918	0.800000 WCR
Dane--RR548 957	0.800000 WCR
TQ493--NO000 951	0.800000 WCR
Dane--TM569 908	0.800000 WCR
Dane--RX879 939	0.800000 WCR
Dane--VK203 841	0.800000 WCR
OH547--NO000 882.5	0.800000 WCR
Dane--TR095 958	0.800000 WCR
Dane--TP352 875	0.800000 WCR
Dane--WH255 886	0.800000 WCR
Dane--NP492 980	0.800000 WCR
Dane--TQ945 947	0.800000 WCR
RI836--NO000 931.5	0.800000 WCR
Dane--TQ514 810	0.800000 WCR
Dane--MQ811 887	0.800000 WCR
RZ220--NO000 906.5	0.800000 WCR
Dane--TV301 913	0.800000 WCR
Dane--RX272 952	0.800000 WCR
Dane--TR259 883	0.800000 WCR
Dane--TR745 811	0.800000 WCR
Dane--MQ864 906	0.800000 WCR
EJ763--NO000 867	0.800000 WCR
Dane--LV217 988	0.800000 WCR
Dane--OH611 921	0.800000 WCR
Dane--MQ879 879	0.800000 WCR
Dane--NG596 940	0.800000 WCR
Dane--SC442 1091	0.800000 WCR
Dane--RY500 898	0.800000 WCR
Dane--NY662 925	0.800000 WCR
Dane--TR468 872	0.800000 WCR
Dane--RW774 921	0.800000 WCR
Dane--RZ467 908	0.800000 WCR
Dane--SA561 953	0.800000 WCR
Dane--NV815 874	0.800000 WCR
Dane--OR833 907	0.800000 WCR
Dane--VK248 748	0.800000 WCR
NV903--WG775 927.333	0.800000 WCR
Dane--OE451 910	0.800000 WCR
Dane--MJ829 947	0.800000 WCR
Dane--WG781 993	0.800000 WCR
Dane--LV087 909	0.800000 WCR
Dane--TV316 947	0.800000 WCR
Dane--RZ896 891	0.800000 WCR
Dane--TQ191 845	0.800000 WCR
RX029--NO000 950.5	0.800000 WCR
Dane--MW894 877	0.800000 WCR
Dane--RW846 941	0.800000 WCR
OO798--TM579 920.333	0.800000 WCR
LJ681--NO000 849	0.800000 WCR
OH539--NO000 877.5	0.800000 WCR
Dane--RZ422 1019	0.800000 WCR
Dane--LJ927 842	0.800000 WCR
Dane--RY260 919	0.800000 WCR
Dane--KS119 840	0.800000 WCR
Dane--LK448 892	0.800000 WCR
Dane--RZ224 893	0.800000 WCR
Dane--ME397 833	0.800000 WCR
LM398--MO589 837.143	0.800000 WCR
SA830--TT748 847.5	0.800000 WCR
Dane--HC105 956	0.800000 WCR
Dane--NQ344 887	0.800000 WCR
NG575--NO000 840	0.800000 WCR
Dane--TS270 812	0.800000 WCR
LN980--MT105 855.909	0.800000 WCR
NA555--NO000 883	0.800000 WCR
Dane--MQ876 843	0.800000 WCR
LM397--LV083 880.5	0.800000 WCR
Dane--NG542 855	0.800000 WCR
Dane--RX022 980	0.800000 WCR
Dane--MJ872 846	0.800000 WCR
Dane--LK427 764	0.800000 WCR
Dane--NN807 881	0.800000 WCR
MU217--MW882 846.6	0.800000 WCR
ME425--NO000 853.5	0.800000 WCR
Dane--MO552 916	0.800000 WCR
Dane--TV315 876	0.800000 WCR
Dane--RX258 916	0.800000 WCR
Dane--LX379 988	0.800000 WCR
MW821--NO000 885	0.800000 WCR
Dane--NG660 836	0.800000 WCR
NP411--TT020 808.333	0.800000 WCR
Dane--TS574 890	0.800000 WCR
Dane--NM152 920	0.800000 WCR
Dane--KS125 891	0.800000 WCR
Dane--NM150 903	0.800000 WCR
NN877--RX005 804.667	0.800000 WCR
Dane--OR885 829	0.800000 WCR
ND335--TQ255 867.667	0.800000 WCR
Dane--WH672 803	0.800000 WCR
Dane--RW490 960	0.800000 WCR
Dane--RR572 866	0.800000 WCR
Dane--OL473 896	0.800000 WCR
Dane--LJ698 950	0.800000 WCR
LJ929--NP473 812.8	0.800000 WCR
MQ964--TS032 873.333	0.800000 WCR
MC145--NO000 891.5	0.800000 WCR
Dane--RZ170 852	0.800000 WCR
Dane--MU289 855	0.800000 WCR
Dane--SX196 951	0.800000 WCR
KS113--NO000 829.5	0.800000 WCR
Dane--RX099 994	0.800000 WCR
Dane--RZ144 886	0.800000 WCR
ND344--NO000 808.5	0.800000 WCR
OA348--RI847 831.25	0.800000 WCR
Dane--RW244 848	0.800000 WCR
Dane--RZ380 1021	0.800000 WCR
Dane--TE888 973	0.800000 WCR
Dane--ME391 872	0.800000 WCR
VL479--NO000 847	0.800000 WCR
Dane--SH227 921	0.800000 WCR
MT142--NO000 922	0.800000 WCR
Dane--MB546 963	0.800000 WCR
Dane--MN456 850	0.800000 WCR
Dane--TQ501 899	0.800000 WCR
LG493--OE482 924.25	0.800000 WCR
Dane--VL498 892	0.800000 WCR
Dane--RX410 850	0.800000 WCR
RW844--TP580 858.75	0.800000 WCR
CX271--NO000 841.5	0.800000 WCR
Dane--SW903 925	0.800000 WCR
Dane--RD444 881	0.800000 WCR
Dane--RX711 869	0.800000 WCR
Dane--LZ916 944	0.800000 WCR
Dane--ME416 871	0.800000 WCR
Dane--QJ032 995	0.800000 WCR
Dane--TU821 849	0.800000 WCR
NB409--NO000 850	0.800000 WCR
Dane--MK457 784	0.800000 WCR
Dane--WG430 865	0.800000 WCR
QR469--NO000 893	0.800000 WCR
Dane--RZ444 861	0.800000 WCR
Dane--NV874 893	0.800000 WCR
Columbia--LM303 952	0.800000 WCR
MZ012--TP964 924.667	0.800000 WCR
MJ818--NO000 874	0.800000 WCR
Waukesha--SV833 928	0.800000 WCR
Dane--RW787 857	0.800000 WCR
Dane--NV994 906	0.800000 WCR
Dane--KR319 851	0.800000 WCR
Dane--SC401 1001	0.800000 WCR
Dane--LV224 929	0.800000 WCR
NP417--NO000 814	0.800000 WCR
SB036--NO000 937	0.800000 WCR
MO571--NO000 871.5	0.800000 WCR
Dane--RO880 906	0.800000 WCR
Dane--TT692 906	0.800000 WCR
OE448--NO000 945.5	0.800000 WCR
Dane--QI646 857	0.800000 WCR
LJ928--NO000 875.5	0.800000 WCR
Dane--NM199 968	0.800000 WCR
OH402--VK348 942.333	0.800000 WCR
Dane--NZ346 956	0.800000 WCR
Dane--CV340 852	0.800000 WCR
Dane--VL263 924	0.800000 WCR
Dane--MC127 828	0.800000 WCR
Dane--TS577 886	0.800000 WCR
Dane--TT341 965	0.800000 WCR
Dane--TR015 852	0.800000 WCR
NQ242--NO000 933	0.800000 WCR
Dane--LL829 852	0.800000 WCR
Dane--SB639 858	0.800000 WCR
LV228--NO000 858	0.800000 WCR
Dane--SA569 920	0.800000 WCR
Dane--WI052 972	0.800000 WCR
Dane--RZ790 966	0.800000 WCR
Dane--NN846 967	0.800000 WCR
Dane--NG620 939	0.800000 WCR
Dane--VK315 825	0.800000 WCR
Dane--LX328 877	0.800000 WCR
Dane--ND354 922	0.800000 WCR
SA646--NO000 938.5	0.800000 WCR
NU863--NO000 902.5	0.800000 WCR
Dane--LM689 861	0.800000 WCR
Dane--LJ503 887	0.800000 WCR
Dane--SA664 855	0.800000 WCR
MT112--NO000 804	0.800000 WCR
Dane--MK644 875	0.800000 WCR
LJ933--NO000 894.5	0.800000 WCR
Dane--SA630 936	0.800000 WCR
NN805--NO000 965.5	0.800000 WCR
Dane--RM381 977	0.800000 WCR
Dane--RR524 827	0.800000 WCR
Dane--RY570 835	0.800000 WCR
Dane--NQ351 914	0.800000 WCR
Dane--RZ123 748	0.800000 WCR
Dane--SD310 893	0.800000 WCR
Dane--LV227 951	0.800000 WCR
Dane--TQ689 964	0.800000 WCR
LK445--SW941 847.667	0.800000 WCR
MT182--RW379 899.5	0.800000 WCR
Dane--MH128 805	0.800000 WCR
RX020--NO000 899	0.800000 WCR
Dane--RY418 860	0.800000 WCR
LJ899--NO000 887	0.800000 WCR
Dane--MT175 928	0.800000 WCR
Dane--SC417 926	0.800000 WCR
Dane--ND377 909	0.800000 WCR
Dane--MQ866 903	0.800000 WCR
Dane--TR478 918	0.800000 WCR
NP493--TM022 844.333	0.800000 WCR
Dane--RW510 940	0.800000 WCR
Dane--MQ893 949	0.800000 WCR
Dane--NY613 965	0.800000 WCR
Dane--OH491 915	0.800000 WCR
Dane--NQ201 856	0.800000 WCR
Dane--NP470 841	0.800000 WCR
Columbia--RZ457 965	0.800000 WCR
TP715--TS856 942.25	0.800000 WCR
Columbia--TU801 946	0.800000 WCR
Dane--MP639 927	0.800000 WCR
Dane--RY805 918	0.800000 WCR
MC139--MQ851 897.75	0.800000 WCR
SI741--TT055 890.718	0.800000 WCR
TS804--TT064 898.684	0.800000 WCR
TU099--TM553 877	0.800000 WCR
Dane--RM368 939	0.800000 WCR
NG675--NO000 924.5	0.800000 WCR
Dane--NV996 922	0.800000 WCR
Dane--MG017 844	0.800000 WCR
TQ681--NO000 970	0.800000 WCR
Dane--MZ671 796	0.800000 WCR
Dane--SY129 928	0.800000 WCR
Dane--TQ525 813	0.800000 WCR
Dane--QK473 930	0.800000 WCR
Dane--LM359 926	0.800000 WCR
Dane--RY659 864	0.800000 WCR
LJ560--NO000 939	0.800000 WCR
Dane--NM886 810	0.800000 WCR
Dane--NG623 927	0.800000 WCR
Dane--RW509 883	0.800000 WCR
Dane--RY811 935	0.800000 WCR
MC126--NO000 931	0.800000 WCR
NP426--NO000 899	0.800000 WCR
Dane--RG700 818	0.800000 WCR
MT104--NO000 938.5	0.800000 WCR
Dane--NP476 855	0.800000 WCR
Dane--SC447 833	0.800000 WCR
Dane--RX799 841	0.800000 WCR
Dane--NG689 860	0.800000 WCR
RW792--SX248 840.75	0.800000 WCR
Dane--NQ290 849	0.800000 WCR
MB541--NV853 861.8	0.800000 WCR
Dane--SW913 907	0.800000 WCR
RY243--NO000 914.5	0.800000 WCR
Dane--MK646 900	0.800000 WCR
Dane--MW897 874	0.800000 WCR
LJ700--NO000 901.5	0.800000 WCR
Dane--QR433 912	0.800000 WCR
MO525--RX118 880.333	0.800000 WCR
Dane--MJ817 790	0.800000 WCR
Dane--OJ195 921	0.800000 WCR
Dane--MU295 843	0.800000 WCR
Dane--RY038 905	0.800000 WCR
Dane--VK892 870	0.800000 WCR
Dane--TU825 938	0.800000 WCR
Dane--QJ004 878	0.800000 WCR
Dane--MT181 888	0.800000 WCR
MC167--NO000 887.5	0.800000 WCR
OJ197--NO000 927	0.800000 WCR
Dane--NP440 900	0.800000 WCR
Dane--NQ298 897	0.800000 WCR
Dane--TU997 808	0.800000 WCR
Dane--VK959 904	0.800000 WCR
Dane--MK433 756	0.800000 WCR
Dane--MQ865 790	0.800000 WCR
Dane--KW481 857	0.800000 WCR
Dane--NV847 891	0.800000 WCR
Dane--RX058 920	0.800000 WCR
Dane--NY880 786	0.800000 WCR
Dane--RX430 925	0.800000 WCR
Dane--SC416 961	0.800000 WCR
Dane--RX378 925	0.800000 WCR
Dane--TU261 946	0.800000 WCR
Columbia--TP187 936	0.800000 WCR
Dane--HJ185 795	0.800000 WCR
HV992--RO827 876	0.800000 WCR
Dane--SA703 861	0.800000 WCR
QK475--NO000 931	0.800000 WCR
Dane--RC665 934	0.800000 WCR
Dane--NV863 923	0.800000 WCR
Dane--TQ486 899	0.800000 WCR
Dane--TU768 919	0.800000 WCR
Dane--KY571 947	0.800000 WCR
Dane--QI668 854	0.800000 WCR
Dane--LG482 871	0.800000 WCR
Dane--MZ034 903	0.800000 WCR
Dane--HC104 841	0.800000 WCR
Dane--TS511 925	0.800000 WCR
Dane--NQ295 852	0.800000 WCR
Dane--SI745 764	0.800000 WCR
Dane--OO647 824	0.800000 WCR
RW922--NO000 854	0.800000 WCR
MU240--NO000 848.5	0.800000 WCR
Dane--RX852 918	0.800000 WCR
Dane--TT400 944	0.800000 WCR
Dane--RZ163 929	0.800000 WCR
Dane--NV844 874	0.800000 WCR
OH641--NO000 818.5	0.800000 WCR
MO554--NO000 947	0.800000 WCR
Dane--TS008 891	0.800000 WCR
Dane--KS123 808	0.800000 WCR
Dane--LZ909 913	0.800000 WCR
Dane--RX753 909	0.800000 WCR
Dane--OQ277 804	0.800000 WCR
MQ842--NO000 833.5	0.800000 WCR
Dane--MQ100 821	0.800000 WCR
MC142--TQ707 838.6	0.800000 WCR
Dane--OO776 918	0.800000 WCR
RY234--RZ454 829.2	0.800000 WCR
Dane--SW947 861	0.800000 WCR
Dane--VK931 823	0.800000 WCR
LJ903--RX838 891.25	0.800000 WCR
Dane--LB668 877	0.800000 WCR
MB554--NO000 924	0.800000 WCR
VM123--NO000 867	0.800000 WCR
Dane--LM321 858	0.800000 WCR
Dane--MC151 845	0.800000 WCR
MM383--NO000 929.5	0.800000 WCR
MQ821--NO000 884.5	0.800000 WCR
Dane--NM179 880	0.800000 WCR
Dane--RY543 915	0.800000 WCR
Dane--TP371 902	0.800000 WCR
LJ007--NO000 876.5	0.800000 WCR
Dane--NG555 913	0.800000 WCR
Dane--SB556 908	0.800000 WCR
NA573--NO000 921	0.800000 WCR
Dane--LV012 905	0.800000 WCR
ME433--NO000 834.5	0.800000 WCR
Dane--OU121 873	0.800000 WCR
LN854--RZ142 825	0.800000 WCR
Dane--MG012 889	0.800000 WCR
Dane--OE146 848	0.800000 WCR
Dane--LM306 835	0.800000 WCR
Dane--RX112 907	0.800000 WCR
OO795--NO000 838.5	0.800000 WCR
Dane--MU244 893	0.800000 WCR
Columbia--RZ462 972	0.800000 WCR
LV989--NO000 900.5	0.800000 WCR
Dane--MQ831 880	0.800000 WCR
Columbia--MG064 961	0.800000 WCR
RM380--NO000 855.5	0.800000 WCR
RY534--NO000 891	0.800000 WCR
RW391--NO000 886.5	0.800000 WCR
Dane--NV872 849	0.800000 WCR
Dane--OQ261 808	0.800000 WCR
LN961--NG548 827.25	0.800000 WCR
Columbia--SI723 925	0.800000 WCR
RZ578--NO000 819	0.800000 WCR
Rock--LZ955 942	0.800000 WCR
QJ033--NO000 912.5	0.800000 WCR
Dane--RX751 889	0.800000 WCR
Dane--NE854 884	0.800000 WCR
OQ276--RR589 889	0.800000 WCR
Dane--TR407 873	0.800000 WCR
Dane--VL336 875	0.800000 WCR
Columbia--MK645 931	0.800000 WCR
RX385--NO000 864	0.800000 WCR
Dane--TS592 918	0.800000 WCR
Dane--OO709 859	0.800000 WCR
Dane--MU238 852	0.800000 WCR
OL501--RX831 833.5	0.800000 WCR
RW663--NO000 896.5	0.800000 WCR
SP921--NO000 938.5	0.800000 WCR
Rock--LM345 903	0.800000 WCR
Dane--TT086 876	0.800000 WCR
Dane--MO534 895	0.800000 WCR
LJ022--NO000 892	0.800000 WCR
Dane--NP477 897	0.800000 WCR
NV933--NO000 944	0.800000 WCR
Dane--TR976 891	0.800000 WCR
Dane--VM070 896	0.800000 WCR
Dane--NP460 791	0.800000 WCR
MC159--NO000 846.5	0.800000 WCR
Dane--MU233 840	0.800000 WCR
Dane--MZ672 893	0.800000 WCR
RZ898--NO000 913.5	0.800000 WCR
Dane--RZ780 828	0.800000 WCR
Dane--NB492 831	0.800000 WCR
TU991--NO000 838	0.800000 WCR
TQ326--NO000 877	0.800000 WCR
LM357--SP938 897.667	0.800000 WCR
Dane--NE031 929	0.800000 WCR
Dane--SA114 924	0.800000 WCR
Dane--LG483 867	0.800000 WCR
Dane--VM078 910	0.800000 WCR
RY179--RY195 958.333	0.800000 WCR
Dane--OH609 880	0.800000 WCR
LG477--NO000 818.5	0.800000 WCR
Columbia--WG364 942	0.800000 WCR
MW801--NO000 999.5	0.800000 WCR
Columbia--WG728 954	0.800000 WCR
RK632--VL266 824.667	0.800000 WCR
Dane--LJ656 888	0.800000 WCR
Dane--LV288 880	0.800000 WCR
Rock--LJ878 871	0.800000 WCR
Dane--MW900 890	0.800000 WCR
Dane--RW569 935	0.800000 WCR
Dane--MO548 921	0.800000 WCR
Dane--QZ005 930	0.800000 WCR
Dane--OA367 863	0.800000 WCR
Dane--WG877 906	0.800000 WCR
Dane--TK504 869	0.800000 WCR
Dane--TK282 911	0.800000 WCR
Dane--VL352 890	0.800000 WCR
LV256--NC916 932.333	0.800000 WCR
MP635--RC846 926	0.800000 WCR
Dane--OO692 897	0.800000 WCR
Dane--RX589 928	0.800000 WCR
Dane--NN818 862	0.800000 WCR
Dane--TS038 884	0.800000 WCR
NG547--NO000 937.5	0.800000 WCR
Columbia--OH687 954	0.800000 WCR
Dane--TR207 805	0.800000 WCR
Dane--ND397 833	0.800000 WCR
Columbia--TP192 971	0.800000 WCR
TF991--NO000 832.5	0.800000 WCR
Dane--MC149 866	0.800000 WCR
Dane--RZ476 805	0.800000 WCR
Dane--TP364 840	0.800000 WCR
RX750--NO000 835	0.800000 WCR
Rock--RW916 919	0.800000 WCR
Dane--NP461 873	0.800000 WCR
Dane--LT029 865	0.800000 WCR
MG015--NO000 941.5	0.800000 WCR
MC138--NO000 818	0.800000 WCR
Dane--TU749 883	0.800000 WCR
Dane--RY188 900	0.800000 WCR
Dane--NA576 918	0.800000 WCR
Dane--QR458 920	0.800000 WCR
LM343--MW816 895.6	0.800000 WCR
QX122--NO000 899	0.800000 WCR
Rock--MF447 871	0.800000 WCR
Dane--SA092 836	0.800000 WCR
Rock--QK205 865	0.800000 WCR
Dane--RX278 904	0.800000 WCR
RX756--NO000 880	0.800000 WCR
Dane--OH488 897	0.800000 WCR
Dane--LV234 847	0.800000 WCR
Dane--NP410 877	0.800000 WCR
Dane--OH441 814	0.800000 WCR
Columbia--NQ399 952	0.800000 WCR
RZ622--SB032 921.833	0.800000 WCR
Dane--TS244 913	0.800000 WCR
Dane--RY182 915	0.800000 WCR
Dane--TT897 837	0.800000 WCR
Dane--RD418 872	0.800000 WCR
TQ504--VL259 882	0.800000 WCR
Dane--RI854 922	0.800000 WCR
Dane--QJ002 878	0.800000 WCR
KB665--NM892 909	0.800000 WCR
Rock--NU843 916	0.800000 WCR
Rock--TU266 910	0.800000 WCR
Rock--QO772 899	0.800000 WCR
Dane--RZ216 875	0.800000 WCR
Columbia--OR850 945	0.800000 WCR
Dane--RI864 867	0.800000 WCR
Dane--SE696 862	0.800000 WCR
Dane--TT677 846	0.800000 WCR
Columbia--LZ939 968	0.800000 WCR
Dane--TQ002 864	0.800000 WCR
RZ430--TP983 884	0.800000 WCR
NM851--RC848 899.545	0.800000 WCR
OE592--NO000 898	0.800000 WCR
Dane--NG584 929	0.800000 WCR
TQ497--NO000 858	0.800000 WCR
Dane--RX547 906	0.800000 WCR
Dane--RB515 840	0.800000 WCR
Dane--SO644 850	0.800000 WCR
Dane--RY487 945	0.800000 WCR
Dane--NM200 869	0.800000 WCR
Dane--RX749 884	0.800000 WCR
Dane--TR455 880	0.800000 WCR
Dane--MW898 891	0.800000 WCR
Dane--WH734 867	0.800000 WCR
Columbia--RZ437 943	0.800000 WCR
LM318--OA441 914	0.800000 WCR
Dane--OE101 883	0.800000 WCR
Dane--RW517 879	0.800000 WCR
MZ702--NO000 856.5	0.800000 WCR
RI860--NO000 863.5	0.800000 WCR
Dane--MW870 877	0.800000 WCR
Dane--NQ810 836	0.800000 WCR
Dane--WH263 905	0.800000 WCR
SP971--NO000 893	0.800000 WCR
Dane--TR291 891	0.800000 WCR
MW845--NO000 830	0.800000 WCR
Dane--LG488 882	0.800000 WCR
Rock--RO865 876	0.800000 WCR
Dane--TQ987 904	0.800000 WCR
Dane--MG055 978	0.800000 WCR
Dane--NM182 845	0.800000 WCR
Dane--WI059 903	0.800000 WCR
Dane--SB566 823	0.800000 WCR
Dane--ME494 858	0.800000 WCR
Dane--TS230 957	0.800000 WCR
Columbia--LZ921 934	0.800000 WCR
Dane--OQ260 844	0.800000 WCR
Dane--NU839 823	0.800000 WCR
Dane--VL837 876	0.800000 WCR
Dane--OE489 834	0.800000 WCR
Dane--SB028 895	0.800000 WCR
ME423--NO000 883.5	0.800000 WCR
Columbia--NQ248 960	0.800000 WCR
Dane--SQ012 896	0.800000 WCR
Dane--LZ973 891	0.800000 WCR
OH494--TS812 873.667	0.800000 WCR
Dane--OQ265 879	0.800000 WCR
Rock--QK466 885	0.800000 WCR
Dane--NP422 863	0.800000 WCR
NG513--NO000 858	0.800000 WCR
Dane--NG520 833	0.800000 WCR
MU237--NO000 817.5	0.800000 WCR
Rock--NV649 918	0.800000 WCR
Dane--MO553 882	0.800000 WCR
Dane--SA873 917	0.800000 WCR
Dane--SA443 916	0.800000 WCR
Dane--NP403 850	0.800000 WCR
Dane--SW902 945	0.800000 WCR
OB913--SC436 829	0.800000 WCR
LJ699--QJ047 826.75	0.800000 WCR
NP406--NO000 853	0.800000 WCR
NN237--VK251 899	0.800000 WCR
Dane--NA513 874	0.800000 WCR
Dane--MQ809 876	0.800000 WCR
Dane--NQ829 802	0.800000 WCR
LX311--NO000 839	0.800000 WCR
Dane--OA423 830	0.800000 WCR
Dane--TR739 826	0.800000 WCR
OB904--NO000 878.5	0.800000 WCR
LJ684--RY626 878.75	0.800000 WCR
MO310--NO000 840.5	0.800000 WCR
Rock--OB996 845	0.800000 WCR
Dane--NQ307 786	0.800000 WCR
Rock--MS454 868	0.800000 WCR
Dane--LV231 886	0.800000 WCR
Dane--SC448 863	0.800000 WCR
Dane--RZ925 850	0.800000 WCR
Dane--SA166 990	0.800000 WCR
Rock--OB972 849	0.800000 WCR
Dane--SH191 819	0.800000 WCR
Dane--LX364 928	0.800000 WCR
Dane--RW816 913	0.800000 WCR
Dane--OJ648 857	0.800000 WCR
Dane--TR014 846	0.800000 WCR
Columbia--TS819 967	0.800000 WCR
Columbia--MQ812 932	0.800000 WCR
Columbia--OH697 955	0.800000 WCR
LJ069--SH116 842.333	0.800000 WCR
Dane--QJ030 874	0.800000 WCR
Dane--LV003 826	0.800000 WCR
Dane--WG442 884	0.800000 WCR
Columbia--OR867 967	0.800000 WCR
Dane--RZ924 849	0.800000 WCR
RX406--NO000 899.5	0.800000 WCR
Dane--TV940 864	0.800000 WCR
Dane--OE484 835	0.800000 WCR
Columbia--GD127 992	0.800000 WCR
RZ199--TR279 905.25	0.800000 WCR
LZ466--TQ502 885	0.800000 WCR
Dane--MO546 857	0.800000 WCR
Columbia--MU296 936	0.800000 WCR
Dane--TQ123 856	0.800000 WCR
Columbia--SX232 958	0.800000 WCR
Dane--SC433 778	0.800000 WCR
Dane--SL814 864	0.800000 WCR
SA649--NO000 940	0.800000 WCR
Rock--RW312 882	0.800000 WCR
Dane--SP966 851	0.800000 WCR
Dane--SP965 868	0.800000 WCR
Dane--NP401 951	0.800000 WCR
Columbia--MU290 993	0.800000 WCR
LJ502--SA446 833.75	0.800000 WCR
Dane--LV086 895	0.800000 WCR
Dane--SP952 835	0.800000 WCR
Dane--LJ058 869	0.800000 WCR
Dane--NA568 910	0.800000 WCR
Dane--OH442 838	0.800000 WCR
MW872--NO000 978	0.800000 WCR
Dane--TQ178 977	0.800000 WCR
MG065--NN822 958.667	0.800000 WCR
Dane--RW549 933	0.800000 WCR
Dane--OR814 898	0.800000 WCR
Dane--VK228 862	0.800000 WCR
TQ470--TP716 890.074	0.800000 WCR
Dane--TV499 868	0.800000 WCR
Dane--TV920 848	0.800000 WCR
Dane--LV213 873	0.800000 WCR
Rock--RK654 920	0.800000 WCR
Rock--RK670 834	0.800000 WCR
Rock--RH097 831	0.800000 WCR
LM312--NO000 857	0.800000 WCR
Dane--TR068 865	0.800000 WCR
Dane--SA565 835	0.800000 WCR
Rock--RZ223 911	0.800000 WCR
VK187--NO000 947	0.800000 WCR
Columbia--RX295 945	0.800000 WCR
Dane--MG040 840	0.800000 WCR
Dane--TQ076 865	0.800000 WCR
KM631--ND388 859.75	0.800000 WCR
Dane--LJ683 882	0.800000 WCR
Rock--TR074 877	0.800000 WCR
Dane--ME463 875	0.800000 WCR
Rock--SP936 900	0.800000 WCR
Dane--TT662 901	0.800000 WCR
Rock--RT075 884	0.800000 WCR
Rock--NB483 901	0.800000 WCR
TR071--TR483 881.667	0.800000 WCR
TQ238--TQ474 891.731	0.800000 WCR
Rock--KW597 779	0.800000 WCR
Dane--RX254 841	0.800000 WCR
Rock--RH086 816	0.800000 WCR
MF776--TT916 861	0.800000 WCR
ME429--OE453 875.333	0.800000 WCR
Rock--RZ158 844	0.800000 WCR
SH135--NO000 830.5	0.800000 WCR
Dane--SX242 864	0.800000 WCR
Dane--KU174 853	0.800000 WCR
Dane--RK686 783	0.800000 WCR
Dane--SC445 927	0.800000 WCR
Columbia--LV300 937	0.800000 WCR
Columbia--SW930 951	0.800000 WCR
Dane--LZ917 854	0.800000 WCR
Dane--TT876 862	0.800000 WCR
Dane--TU820 871	0.800000 WCR
LV034--NO000 982	0.800000 WCR
Rock--NB657 889	0.800000 WCR
Dane--TP271 874	0.800000 WCR
Dane--OT431 826	0.800000 WCR
Rock--QU000 868	0.800000 WCR
Dane--VL836 846	0.800000 WCR
OD898--TR270 893.125	0.800000 WCR
Dane--NW775 845	0.800000 WCR
LN919--NQ206 840.8	0.800000 WCR
Rock--OT448 796	0.800000 WCR
Dane--TU236 877	0.800000 WCR
RY244--NO000 883.5	0.800000 WCR
RX587--RD407 872.667	0.800000 WCR
Rock--NB414 839	0.800000 WCR
Dane--MB548 834	0.800000 WCR
MH114--NO000 864	0.800000 WCR
Dane--NP419 859	0.800000 WCR
Dane--SU760 872	0.800000 WCR
Rock--NB490 830	0.800000 WCR
RR569--NO000 855.5	0.800000 WCR
Dane--TV900 861	0.800000 WCR
Columbia--LJ673 934	0.800000 WCR
LM307--MB506 846.75	0.800000 WCR
Dane--SB645 854	0.800000 WCR
SC429--NO000 930.5	0.800000 WCR
Dane--OO700 876	0.800000 WCR
NV904--NO000 864.5	0.800000 WCR
Dane--NP455 840	0.800000 WCR
NV965--NO000 846.5	0.800000 WCR
MO547--NO000 838.5	0.800000 WCR
RZ764--NO000 890	0.800000 WCR
Dane--RI829 869	0.800000 WCR
Dane--RM352 842	0.800000 WCR
Dane--RY515 858	0.800000 WCR
Dane--RW866 911	0.800000 WCR
Rock--TH744 812	0.800000 WCR
Dane--RY526 879	0.800000 WCR
Dane--VL403 852	0.800000 WCR
Columbia--OH404 951	0.800000 WCR
Dane--RO778 875	0.800000 WCR
Columbia--OA301 917	0.800000 WCR
Dane--RR861 871	0.800000 WCR
Rock--OT447 900	0.800000 WCR
OE481--NO000 899.5	0.800000 WCR
Dane--KW617 843	0.800000 WCR
Rock--MN792 939	0.800000 WCR
Rock--MU211 890	0.800000 WCR
Columbia--NM185 962	0.800000 WCR
Dane--NP427 861	0.800000 WCR
Dane--QR297 959	0.800000 WCR
Dane--RR559 848	0.800000 WCR
Dane--HT363 932	0.800000 WCR
LV981--NO000 871.5	0.800000 WCR
Rock--OO765 835	0.800000 WCR
Rock--TT320 840	0.800000 WCR
RX576--RZ532 912.815	0.800000 WCR
Columbia--SA576 933	0.800000 WCR
Dane--MZ006 860	0.800000 WCR
Columbia--LJ936 937	0.800000 WCR
LN994--ND384 883.25	0.800000 WCR
Rock--QO775 832	0.800000 WCR
Dane--NV952 937	0.800000 WCR
Dane--MM381 906	0.800000 WCR
IH522--NN235 835.333	0.800000 WCR
Dane--SW925 925	0.800000 WCR
Columbia--MT156 946	0.800000 WCR
Dane--RR567 788	0.800000 WCR
Dane--NM870 868	0.800000 WCR
Columbia--RC874 966	0.800000 WCR
QR435--WH301 955.75	0.800000 WCR
Dane--NQ250 866	0.800000 WCR
Columbia--RW673 942	0.800000 WCR
Dane--RY571 923	0.800000 WCR
Dane--SA164 863	0.800000 WCR
RX848--NO000 854.5	0.800000 WCR
Columbia--MU220 938	0.800000 WCR
Dane--RI859 877	0.800000 WCR
Dane--WH704 852	0.800000 WCR
Dane--RZ573 848	0.800000 WCR
Dane--TR480 864	0.800000 WCR
MT190--OO582 845.75	0.800000 WCR
VL326--NO000 914	0.800000 WCR
Dane--SI682 868	0.800000 WCR
Dane--MK678 972	0.800000 WCR
Rock--SH200 819	0.800000 WCR
Rock--LZ404 797	0.800000 WCR
OR832--OE137 944.81	0.800000 WCR
Rock--LJ847 825	0.800000 WCR
Rock--OB968 780	0.800000 WCR
Dane--LZ990 815	0.800000 WCR
LJ653--NM135 848	0.800000 WCR
Dane--NV941 931	0.800000 WCR
NG525--OL480 838.25	0.800000 WCR
Dane--RW802 929	0.800000 WCR
Columbia--LV024 948	0.800000 WCR
Dane--NG618 861	0.800000 WCR
Dane--TQ442 848	0.800000 WCR
Columbia--MC160 953	0.800000 WCR
Dane--OQ003 897	0.800000 WCR
Columbia--TT858 951	0.800000 WCR
Rock--QO792 864	0.800000 WCR
RZ464--NO000 875.5	0.800000 WCR
RZ099--NO000 955	0.800000 WCR
Rock--RV745 923	0.800000 WCR
RX897--TT316 839.4	0.800000 WCR
LK428--GD130 837.3	0.800000 WCR
Columbia--RC891 937	0.800000 WCR
Dane--TV924 858	0.800000 WCR
Dane--TQ026 994	0.800000 WCR
OE107--RM372 842	0.800000 WCR
Rock--TQ008 853	0.800000 WCR
Rock--NB656 759	0.800000 WCR
OQ291--NO000 858.5	0.800000 WCR
Dane--MZ655 911	0.800000 WCR
Dane--OH667 873	0.800000 WCR
Dane--OE149 897	0.800000 WCR
LY777--NO000 900	0.800000 WCR
Dane--VL287 908	0.800000 WCR
NQ839--NO000 853.5	0.800000 WCR
Dane--VK196 923	0.800000 WCR
TQ711--NO000 843	0.800000 WCR
SI713--NO000 870	0.800000 WCR
Columbia--VK301 947	0.800000 WCR
OH554--NO000 824	0.800000 WCR
Dane--OA452 878	0.800000 WCR
LV037--NO000 819.5	0.800000 WCR
Dane--MO586 921	0.800000 WCR
Dane--LV257 962	0.800000 WCR
Dane--LV933 839	0.800000 WCR
Dane--LM381 840	0.800000 WCR
Rock--SY169 873	0.800000 WCR
LJ926--NG551 835.6	0.800000 WCR
NV880--TT917 810.667	0.800000 WCR
Rock--OT491 824	0.800000 WCR
Dane--SL840 846	0.800000 WCR
Dane--QN013 869	0.800000 WCR
Rock--MO327 784	0.800000 WCR
Dane--HT353 820	0.800000 WCR
Dane--TP747 845	0.800000 WCR
Dane--NP415 905	0.800000 WCR
Rock--TY584 808	0.800000 WCR
Columbia--NG505 949	0.800000 WCR
Dane--MW822 894	0.800000 WCR
Rock--NB436 815	0.800000 WCR
VK326--WG765 931.8	0.800000 WCR
RM374--TR250 929.333	0.800000 WCR
QO791--ST792 798.333	0.800000 WCR
LM378--TQ254 938	0.800000 WCR
TT728--NO000 833.5	0.800000 WCR
Rock--RW237 859	0.800000 WCR
Dane--TP957 911	0.800000 WCR
Dane--MQ806 948	0.800000 WCR
Dane--TK278 863	0.800000 WCR
Rock--TV341 887	0.800000 WCR
Columbia--TR109 933	0.800000 WCR
Columbia--TR258 952	0.800000 WCR
Columbia--MK610 968	0.800000 WCR
Dane--OO683 825	0.800000 WCR
Dane--OO744 844	0.800000 WCR
Rock--ST162 863	0.800000 WCR
Rock--NB497 887	0.800000 WCR
RW910--NO000 909.5	0.800000 WCR
OE119--RX563 896.467	0.800000 WCR
RW374--QR466 905	0.800000 WCR
Dane--TR961 834	0.800000 WCR
Dane--MQ859 910	0.800000 WCR
Dane--WI045 823	0.800000 WCR
MZ032--NO000 934	0.800000 WCR
MJ850--OE550 852.5	0.800000 WCR
MM392--TK288 910	0.800000 WCR
TS876--NO000 924.5	0.800000 WCR
RD437--TP961 914.182	0.800000 WCR
TQ949--TS540 931.2	0.800000 WCR
RR570--NO000 935.5	0.800000 WCR
Rock--LT040 796	0.800000 WCR
Dane--LZ963 838	0.800000 WCR
Rock--RD768 835	0.800000 WCR
NV873--NO000 865.5	0.800000 WCR
Rock--SF965 742	0.800000 WCR