pcf
* control data
restart  estimation
   13    27     9     0     1
    2     1 single point 1 0 0
  5.0   2.0   0.3  0.03    10
  3.0   3.0 0.001
  0.1
   50  0.01     3     3  0.01     3
    1     1     1
* parameter groups
fsp      relative 0.01  0.0  switch  2.0 parabolic
lr       relative 0.01  0.0  switch  2.0 parabolic
msc      relative 0.01  0.0  switch  2.0 parabolic
sla      relative 0.01  0.0  switch  2.0 parabolic
smdc     relative 0.01  0.0  switch  2.0 parabolic
smdp     relative 0.01  0.0  switch  2.0 parabolic
npp      relative 0.01  0.0  switch  2.0 parabolic
fert     relative 0.01  0.0  switch  2.0 parabolic
asw      relative 0.01  0.0  switch  2.0 parabolic
* parameter data
fsp0_2   fixed factor   0.75          0.55    1.0       fsp      1.0     0.0 1
fsp1_2   none  factor   0.03          0.025   1.5       fsp      1.0     0.0 1
npp1_2   none  factor   0.8           0.5     1.0       npp      1.0     0.0 1
npp0_2   fixed factor   0.229         0.015   0.3       npp      1.0     0.0 1
smdc_2   none  factor   0.095         0.01    10.0      smdc     1.0     0.0 1
smdp_2   fixed factor   2.4           1.0      4.0      smdp     1.0     0.0 1
lrm_2    fixed factor   0.042         0.027   0.5       lr       1.0     0.0 1
lr0_2    fixed factor   0.0015        0.0001  0.015     lr       1.0     0.0 1
msc_2    none  factor   0.01          0.005   0.015     msc      1.0     0.0 1
sla0_2   fixed factor   16.1          15.0    26.0      sla      1.0     0.0 1
sla1_2   none  factor   5.7           5.5     6.0       sla      1.0     0.0 1
fert_2   fixed factor   1.0           0.5     1.5       fert     1.0     0.0 1
maxasw_2 fixed factor   300           50      450       asw      1.0     0.0 1
* observation groups
obsgroup
* observation data
dbh1_2   17.7     1.0  obsgroup
dbh2_2   25.8     1.0  obsgroup
dbh3_2   28.8     1.0  obsgroup
dbh4_2   30.3     1.0  obsgroup
dbh5_2   31.2     1.0  obsgroup
dbh6_2   32.1     1.0  obsgroup
dbh7_2   32.9     1.0  obsgroup
dbh8_2   33.8     1.0  obsgroup
dbh9_2   35.4     1.0  obsgroup
dbh10_2  37.2     1.0  obsgroup
dbh11_2  38.0     1.0  obsgroup
dbh12_2  38.5     1.0  obsgroup
dbh13_2  39.8     1.0  obsgroup
dbh14_2  42.2     1.0  obsgroup
dbh15_2  44.6     1.0  obsgroup
dbh16_2  45.4     1.0  obsgroup
dbh17_2  45.5     1.0  obsgroup
dbh18_2  46.8     1.0  obsgroup
dbh19_2  47.3     1.0  obsgroup
dbh20_2  48.3     1.0  obsgroup
dbh21_2  48.9     1.0  obsgroup
dbh22_2  49.8     1.0  obsgroup
dbh23_2  50.4     1.0  obsgroup
dbh24_2  51.2     1.0  obsgroup
dbh25_2  52.5     1.0  obsgroup
dbh26_2  53.1     1.0  obsgroup
dbh27_2  54.2     1.0  obsgroup
* model command line
exe\3pg -d misc\rsgparm2.txt -s misc\rsgsite2.txt
* model input/output
misc\rsgparm2.tpl  misc\rsgparm2.txt
misc\rsgsite2.tpl  misc\rsgsite2.txt
misc\rsgsite2.ins  misc\rsgsite2.out
* prior information

