pcf
* control data
restart  estimation
   13    27     9     0     1
    2     1 single point 1 0 0
  5.0   2.0   0.3  0.03    10
  3.0   3.0 0.001
  0.1
   50  0.01     3     3  0.01     3
    1     1     1
* parameter groups
fsp      relative 0.01  0.0  switch  2.0 parabolic
lr       relative 0.01  0.0  switch  2.0 parabolic
msc      relative 0.01  0.0  switch  2.0 parabolic
sla      relative 0.01  0.0  switch  2.0 parabolic
smdc     relative 0.01  0.0  switch  2.0 parabolic
smdp     relative 0.01  0.0  switch  2.0 parabolic
npp      relative 0.01  0.0  switch  2.0 parabolic
fert     relative 0.01  0.0  switch  2.0 parabolic
asw      relative 0.01  0.0  switch  2.0 parabolic
* parameter data
fsp0_3   fixed factor   0.75       0.55    1.0          fsp      1.0     0.0 1
fsp1_3   none  factor   0.03       0.025   1.5          fsp      1.0     0.0 1
npp1_3   none  factor   0.8        0.5     1.0          npp      1.0     0.0 1
npp0_3   fixed factor   0.229      0.015   0.3          npp      1.0     0.0 1
smdc_3   none  factor   0.095      0.01    10.0         smdc     1.0     0.0 1
smdp_3   fixed factor   2.4        1.0      4.0         smdp     1.0     0.0 1
lrm_3    fixed factor   0.042      0.027   0.5          lr       1.0     0.0 1
lr0_3    fixed factor   0.0015     0.0001  0.015        lr       1.0     0.0 1
msc_3    none  factor   0.01       0.005   0.015        msc      1.0     0.0 1
sla0_3   fixed factor   16.1       15.0    26.0         sla      1.0     0.0 1
sla1_3   none  factor   5.7        5.5     6.0          sla      1.0     0.0 1
fert_3   fixed factor   1.0        0.5     1.5          fert     1.0     0.0 1
maxasw_3 fixed factor   300        50      450          asw      1.0     0.0 1
* observation groups
obsgroup
* observation data
dbh1_3   18.5      1.0  obsgroup
dbh2_3   26.5      1.0  obsgroup
dbh3_3   29.9      1.0  obsgroup
dbh4_3   31.4      1.0  obsgroup
dbh5_3   32.6      1.0  obsgroup
dbh6_3   34.0      1.0  obsgroup
dbh7_3   35.0      1.0  obsgroup
dbh8_3   36.6      1.0  obsgroup
dbh9_3   37.6      1.0  obsgroup
dbh10_3  39.3      1.0  obsgroup
dbh11_3  40.3      1.0  obsgroup
dbh12_3  40.8      1.0  obsgroup
dbh13_3  42.5      1.0  obsgroup
dbh14_3  44.6      1.0  obsgroup
dbh15_3  46.4      1.0  obsgroup
dbh16_3  47.8      1.0  obsgroup
dbh17_3  52.8      1.0  obsgroup
dbh18_3  55.5      1.0  obsgroup
dbh19_3  57.0      1.0  obsgroup
dbh20_3  58.6      1.0  obsgroup
dbh21_3  59.2      1.0  obsgroup
dbh22_3  60.9      1.0  obsgroup
dbh23_3  61.6      1.0  obsgroup
dbh24_3  63.0      1.0  obsgroup
dbh25_3  64.7      1.0  obsgroup
dbh26_3  65.6      1.0  obsgroup
dbh27_3  67.8      1.0  obsgroup
* model command line
exe\3pg -d misc\rsgparm3.txt -s misc\rsgsite3.txt
* model input/output
misc\rsgparm3.tpl  misc\rsgparm3.txt
misc\rsgsite3.tpl  misc\rsgsite3.txt
misc\rsgsite3.ins  misc\rsgsite3.out
* prior information

