pcf
* control data
restart regularisation
     30  11015      1      0      8  
    1   49 double point  1    0  0
   10.000        2.0000      0.3  0.03  10     999  lamforgive
      0.100  10.0  0.001
 0.1
    50  0.005  4  4  0.005  4
1  1  1  1 nojcosaveitn noreisaveitn
* svd assist
run18base.pst
run18base.jco
    1    3    3    1    0
* parameter groups
 pargp absolute    0.015  0.0  switch    2.0 parabolic
* parameter data
par1         none  relative   10.000     1.0e-20  1.0e20  pargp  1.0  -10.000      1
par2         none  relative   10.000     1.0e-20  1.0e20  pargp  1.0  -10.000      1
par3         none  relative   10.000     1.0e-20  1.0e20  pargp  1.0  -10.000      1
par4         none  relative   10.000     1.0e-20  1.0e20  pargp  1.0  -10.000      1
par5         none  relative   10.000     1.0e-20  1.0e20  pargp  1.0  -10.000      1
par6         none  relative   10.000     1.0e-20  1.0e20  pargp  1.0  -10.000      1
par7         none  relative   10.000     1.0e-20  1.0e20  pargp  1.0  -10.000      1
par8         none  relative   10.000     1.0e-20  1.0e20  pargp  1.0  -10.000      1
par9         none  relative   10.000     1.0e-20  1.0e20  pargp  1.0  -10.000      1
par10        none  relative   10.000     1.0e-20  1.0e20  pargp  1.0  -10.000      1
par11        none  relative   10.000     1.0e-20  1.0e20  pargp  1.0  -10.000      1
par12        none  relative   10.000     1.0e-20  1.0e20  pargp  1.0  -10.000      1
par13        none  relative   10.000     1.0e-20  1.0e20  pargp  1.0  -10.000      1
par14        none  relative   10.000     1.0e-20  1.0e20  pargp  1.0  -10.000      1
par15        none  relative   10.000     1.0e-20  1.0e20  pargp  1.0  -10.000      1
par16        none  relative   10.000     1.0e-20  1.0e20  pargp  1.0  -10.000      1
par17        none  relative   10.000     1.0e-20  1.0e20  pargp  1.0  -10.000      1
par18        none  relative   10.000     1.0e-20  1.0e20  pargp  1.0  -10.000      1
par19        none  relative   10.000     1.0e-20  1.0e20  pargp  1.0  -10.000      1
par20        none  relative   10.000     1.0e-20  1.0e20  pargp  1.0  -10.000      1
par21        none  relative   10.000     1.0e-20  1.0e20  pargp  1.0  -10.000      1
par22        none  relative   10.000     1.0e-20  1.0e20  pargp  1.0  -10.000      1
par23        none  relative   10.000     1.0e-20  1.0e20  pargp  1.0  -10.000      1
par24        none  relative   10.000     1.0e-20  1.0e20  pargp  1.0  -10.000      1
par25        none  relative   10.000     1.0e-20  1.0e20  pargp  1.0  -10.000      1
par26        none  relative   10.000     1.0e-20  1.0e20  pargp  1.0  -10.000      1
par27        none  relative   10.000     1.0e-20  1.0e20  pargp  1.0  -10.000      1
par28        none  relative   10.000     1.0e-20  1.0e20  pargp  1.0  -10.000      1
par29        none  relative   10.000     1.0e-20  1.0e20  pargp  1.0  -10.000      1
par30        none  relative   10.000     1.0e-20  1.0e20  pargp  1.0  -10.000      1
* observation groups
regul_kp1
DevHead
PDevHead
DevFlux
PDevFlux
regul_kp
regul_rchmul
regul_smult
* observation data
pdf1 65848896 7.7481E-08 pdevflux
pdf2 2935008 1.73834E-06 pdevflux
pdf3 1178496 4.32928E-06 pdevflux
pdf4 3496608 1.45914E-06 pdevflux
pdf5 9999 0 pdevflux
pdf6 9999 0 pdevflux
pdf7 9999 0 pdevflux
pdf8 9999 0 pdevflux
pdf9 9999 0 pdevflux
pdf10 46299168 1.10197E-07 pdevflux
pdf11 24169536 2.11094E-07 pdevflux
pdf12 1308096 3.90036E-06 pdevflux
pdf13 9999 0 pdevflux
pdf14 9999 0 pdevflux
pdf15 12442464 4.10051E-07 pdevflux
pdf16 9999 0 pdevflux
pdf17 9999 0 pdevflux
pdf18 1998432 2.55302E-06 pdevflux
pdf19 3753216 1.35938E-06 pdevflux
pdf20 5632416 9.05835E-07 pdevflux
pdf21 9999 0 pdevflux
pdf22 6306336 8.09034E-07 pdevflux
pdf23 2956608 1.72564E-06 pdevflux
df1 76636886.4 5.4502E-08 devflux
df2 74878819.2 5.4502E-08 devflux
df3 110380694.4 5.4502E-08 devflux
df4 85293532.8 5.4502E-08 devflux
df5 62793417.6 5.4502E-08 devflux
df6 51583190.4 5.4502E-08 devflux
df7 43812057.6 5.4502E-08 devflux
df8 68396025.6 5.4502E-08 devflux
df9 79270272 5.4502E-08 devflux
df10 77562374.4 5.4502E-08 devflux
df11 68132304 5.4502E-08 devflux
df12 65944972.8 5.4502E-08 devflux
df13 56577830.4 5.4502E-08 devflux
df14 65898950.4 5.4502E-08 devflux
df15 74931868.8 5.4502E-08 devflux
df16 43326172.8 5.4502E-08 devflux
df17 80271388.8 5.4502E-08 devflux
df18 56494944 5.4502E-08 devflux
df19 98873942.4 5.4502E-08 devflux
df20 68307148.8 5.4502E-08 devflux
df21 88875619.2 5.4502E-08 devflux
df22 204280185.6 5.4502E-08 devflux
df23 115025817.6 5.4502E-08 devflux
df24 165642307.2 5.4502E-08 devflux
df25 398031321.6 5.4502E-08 devflux
df26 86063184 5.4502E-08 devflux
df27 70917868.8 5.4502E-08 devflux
df28 67634611.2 5.4502E-08 devflux
df29 69384124.8 5.4502E-08 devflux
df30 72742435.2 5.4502E-08 devflux
df31 162412531.2 5.4502E-08 devflux
df32 51448377.6 5.4502E-08 devflux
df33 55135555.2 5.4502E-08 devflux
df34 96534864 5.4502E-08 devflux
df35 419779497.6 5.4502E-08 devflux
df36 103202668.8 5.4502E-08 devflux
df37 188766259.2 5.4502E-08 devflux
df38 95741222.4 5.4502E-08 devflux
df39 76505760 5.4502E-08 devflux
df40 50637888 5.4502E-08 devflux
df41 58649011.2 5.4502E-08 devflux
df42 48620995.2 5.4502E-08 devflux
df43 40662806.4 5.4502E-08 devflux
df44 57126384 5.4502E-08 devflux
df45 58758710.4 5.4502E-08 devflux
df46 57573446.4 5.4502E-08 devflux
df47 63992908.8 5.4502E-08 devflux
df48 252134640 5.4502E-08 devflux
df49 281661321.6 5.4502E-08 devflux
df50 102099859.2 5.4502E-08 devflux
df51 69885993.6 5.4502E-08 devflux
df52 64391817.6 5.4502E-08 devflux
df53 40135334.4 5.4502E-08 devflux
df54 47356617.6 5.4502E-08 devflux
df55 29581689.6 5.4502E-08 devflux
df56 34066771.2 5.4502E-08 devflux
df57 39833510.4 5.4502E-08 devflux
df58 34836998.4 5.4502E-08 devflux
df59 2792851.2 2.79011E-06 devflux
df60 2181340.8 2.79011E-06 devflux
df61 1168156.8 2.79011E-06 devflux
df62 2904998.4 2.79011E-06 devflux
df63 2260972.8 2.79011E-06 devflux
df64 1763308.8 2.79011E-06 devflux
df65 1386432 2.79011E-06 devflux
df66 2686204.8 2.79011E-06 devflux
df67 2161584 2.79011E-06 devflux
df68 2868825.6 2.79011E-06 devflux
df69 2255068.8 2.79011E-06 devflux
df70 2707891.2 2.79011E-06 devflux
df71 1113494.4 2.79011E-06 devflux
df72 2017699.2 2.79011E-06 devflux
df73 2170108.8 2.79011E-06 devflux
df74 1554768 2.79011E-06 devflux
df75 2140473.6 2.79011E-06 devflux
df76 2389478.4 2.79011E-06 devflux
df77 2124086.4 2.79011E-06 devflux
df78 1990051.2 2.79011E-06 devflux
df79 2329084.8 2.79011E-06 devflux
df80 2340432 2.79011E-06 devflux
df81 2585491.2 2.79011E-06 devflux
df82 2343571.2 2.79011E-06 devflux
df83 2295360 2.79011E-06 devflux
df84 2399904 2.79011E-06 devflux
df85 2313417.6 2.79011E-06 devflux
df86 2126908.8 2.79011E-06 devflux
df87 2055600 2.79011E-06 devflux
df88 2076768 2.79011E-06 devflux
df89 2273990.4 2.79011E-06 devflux
df90 1998604.8 2.79011E-06 devflux
df91 2025216 2.79011E-06 devflux
df92 1963756.8 2.79011E-06 devflux
df93 2245161.6 2.79011E-06 devflux
df94 1603353.6 2.79011E-06 devflux
df95 2194473.6 2.79011E-06 devflux
df96 1831248 2.79011E-06 devflux
df97 1916812.8 2.79011E-06 devflux
df98 2143900.8 2.79011E-06 devflux
df99 2133043.2 2.79011E-06 devflux
df100 1709452.8 2.79011E-06 devflux
df101 1529308.8 2.79011E-06 devflux
df102 -8553600 0 devflux
df103 1791273.6 2.79011E-06 devflux
df104 1899273.6 2.79011E-06 devflux
df105 1986048 2.79011E-06 devflux
df106 1982073.6 2.79011E-06 devflux
df107 1839024 2.79011E-06 devflux
df108 1833264 2.79011E-06 devflux
df109 2123395.2 2.79011E-06 devflux
df110 1976947.2 2.79011E-06 devflux
df111 1849507.2 2.79011E-06 devflux
df112 1348329.6 2.79011E-06 devflux
df113 1314316.8 2.79011E-06 devflux
df114 1250582.4 2.79011E-06 devflux
df115 1204617.6 2.79011E-06 devflux
df116 1142121.6 2.79011E-06 devflux
df117 1268726.4 2.18541E-06 devflux
df118 1453104 2.18541E-06 devflux
df119 4603392 2.18541E-06 devflux
df120 1803830.4 2.18541E-06 devflux
df121 1090137.6 2.18541E-06 devflux
df122 1387008 2.18541E-06 devflux
df123 808848 2.18541E-06 devflux
df124 1196755.2 2.18541E-06 devflux
df125 5275584 2.18541E-06 devflux
df126 1715760 2.18541E-06 devflux
df127 983433.6 2.18541E-06 devflux
df128 1039334.4 2.18541E-06 devflux
df129 934790.4 2.18541E-06 devflux
df130 1141257.6 2.18541E-06 devflux
df131 1308700.8 2.18541E-06 devflux
df132 1002268.8 2.18541E-06 devflux
df133 944697.6 2.18541E-06 devflux
df134 1189728 2.18541E-06 devflux
df135 1949644.8 2.18541E-06 devflux
df136 1287014.4 2.18541E-06 devflux
df137 1609603.2 2.18541E-06 devflux
df138 1866384 2.18541E-06 devflux
df139 1648713.6 2.18541E-06 devflux
df140 3025756.8 2.18541E-06 devflux
df141 9591350.4 2.18541E-06 devflux
df142 2037772.8 2.18541E-06 devflux
df143 1587139.2 2.18541E-06 devflux
df144 1540627.2 2.18541E-06 devflux
df145 1327161.6 2.18541E-06 devflux
df146 1741248 2.18541E-06 devflux
df147 2487513.6 2.18541E-06 devflux
df148 979977.6 2.18541E-06 devflux
df149 937180.8 2.18541E-06 devflux
df150 10420041.6 2.18541E-06 devflux
df151 16097328 2.18541E-06 devflux
df152 1807257.6 2.18541E-06 devflux
df153 6100272 2.18541E-06 devflux
df154 7724016 2.18541E-06 devflux
df155 3432297.6 2.18541E-06 devflux
df156 1291593.6 2.18541E-06 devflux
df157 1023033.6 2.18541E-06 devflux
df158 1322956.8 2.18541E-06 devflux
df159 1062604.8 2.18541E-06 devflux
df160 1758672 2.18541E-06 devflux
df161 2772518.4 2.18541E-06 devflux
df162 1333497.6 2.18541E-06 devflux
df163 1232611.2 2.18541E-06 devflux
df164 1317628.8 2.18541E-06 devflux
df165 6210201.6 2.18541E-06 devflux
df166 1385913.6 2.18541E-06 devflux
df167 1019520 2.18541E-06 devflux
df168 1523232 2.18541E-06 devflux
df169 1097683.2 2.18541E-06 devflux
df170 747561.6 2.18541E-06 devflux
df171 478252.8 2.18541E-06 devflux
df172 312480 2.18541E-06 devflux
df173 493171.2 2.18541E-06 devflux
df174 677721.6 2.18541E-06 devflux
df175 3367382.4 1.59064E-06 devflux
df176 3853324.8 1.59064E-06 devflux
df177 3607171.2 1.59064E-06 devflux
df178 3804105.6 1.59064E-06 devflux
df179 3243369.6 1.59064E-06 devflux
df180 3323923.2 1.59064E-06 devflux
df181 3171859.2 1.59064E-06 devflux
df182 3466742.4 1.59064E-06 devflux
df183 3482524.8 1.59064E-06 devflux
df184 3617337.6 1.59064E-06 devflux
df185 3473884.8 1.59064E-06 devflux
df186 3380428.8 1.59064E-06 devflux
df187 2383891.2 1.59064E-06 devflux
df188 2653459.2 1.59064E-06 devflux
df189 3618518.4 1.59064E-06 devflux
df190 2289974.4 1.59064E-06 devflux
df191 3649939.2 1.59064E-06 devflux
df192 2097273.6 1.59064E-06 devflux
df193 3393388.8 1.59064E-06 devflux
df194 3487075.2 1.59064E-06 devflux
df195 3571776 1.59064E-06 devflux
df196 3890736 1.59064E-06 devflux
df197 3532060.8 1.59064E-06 devflux
df198 3459686.4 1.59064E-06 devflux
df199 3919708.8 1.59064E-06 devflux
df200 3887884.8 1.59064E-06 devflux
df201 3638246.4 1.59064E-06 devflux
df202 4010169.6 1.59064E-06 devflux
df203 3617712 1.59064E-06 devflux
df204 3469507.2 1.59064E-06 devflux
df205 4029062.4 1.59064E-06 devflux
df206 2973801.6 1.59064E-06 devflux
df207 3121948.8 1.59064E-06 devflux
df208 3514118.4 1.59064E-06 devflux
df209 3795696 1.59064E-06 devflux
df210 3411273.6 1.59064E-06 devflux
df211 3674505.6 1.59064E-06 devflux
df212 4042540.8 1.59064E-06 devflux
df213 3375590.4 1.59064E-06 devflux
df214 3431404.8 1.59064E-06 devflux
df215 2897942.4 1.59064E-06 devflux
df216 2660227.2 1.59064E-06 devflux
df217 2802096 1.59064E-06 devflux
df218 2439590.4 1.59064E-06 devflux
df219 2864476.8 1.59064E-06 devflux
df220 2667484.8 1.59064E-06 devflux
df221 3044822.4 1.59064E-06 devflux
df222 2522534.4 1.59064E-06 devflux
df223 3006259.2 1.59064E-06 devflux
df224 3211603.2 1.59064E-06 devflux
df225 2612764.8 1.59064E-06 devflux
df226 3305721.6 1.59064E-06 devflux
df227 3012998.4 1.59064E-06 devflux
df228 2667715.2 1.59064E-06 devflux
df229 2507731.2 1.59064E-06 devflux
df230 2040681.6 1.59064E-06 devflux
df231 1847808 1.59064E-06 devflux
df232 2191651.2 1.59064E-06 devflux
df233 9999 0 devflux
df234 9999 0 devflux
df235 9999 0 devflux
df236 9999 0 devflux
df237 9999 0 devflux
df238 9999 0 devflux
df239 9999 0 devflux
df240 9999 0 devflux
df241 9999 0 devflux
df242 9999 0 devflux
df243 9999 0 devflux
df244 9999 0 devflux
df245 9999 0 devflux
df246 9999 0 devflux
df247 9999 0 devflux
df248 9999 0 devflux
df249 9999 0 devflux
df250 9999 0 devflux
df251 9999 0 devflux
df252 9999 0 devflux
df253 9999 0 devflux
df254 9999 0 devflux
df255 9999 0 devflux
df256 9999 0 devflux
df257 9999 0 devflux
df258 9999 0 devflux
df259 9999 0 devflux
df260 9999 0 devflux
df261 9999 0 devflux
df262 9999 0 devflux
df263 9999 0 devflux
df264 9999 0 devflux
df265 9999 0 devflux
df266 9999 0 devflux
df267 9999 0 devflux
df268 9999 0 devflux
df269 9999 0 devflux
df270 9999 0 devflux
df271 9999 0 devflux
df272 9999 0 devflux
df273 9999 0 devflux
df274 9999 0 devflux
df275 9999 0 devflux
df276 9999 0 devflux
df277 9999 0 devflux
df278 9999 0 devflux
df279 9999 0 devflux
df280 9999 0 devflux
df281 9999 0 devflux
df282 9999 0 devflux
df283 9999 0 devflux
df284 9999 0 devflux
df285 9999 0 devflux
df286 9999 0 devflux
df287 9999 0 devflux
df288 9999 0 devflux
df289 9999 0 devflux
df290 9999 0 devflux
df291 9999 0 devflux
df292 9999 0 devflux
df293 9999 0 devflux
df294 9999 0 devflux
df295 9999 0 devflux
df296 9999 0 devflux
df297 9999 0 devflux
df298 9999 0 devflux
df299 9999 0 devflux
df300 9999 0 devflux
df301 9999 0 devflux
df302 9999 0 devflux
df303 9999 0 devflux
df304 9999 0 devflux
df305 9999 0 devflux
df306 9999 0 devflux
df307 9999 0 devflux
df308 9999 0 devflux
df309 9999 0 devflux
df310 9999 0 devflux
df311 9999 0 devflux
df312 9999 0 devflux
df313 9999 0 devflux
df314 9999 0 devflux
df315 9999 0 devflux
df316 9999 0 devflux
df317 9999 0 devflux
df318 9999 0 devflux
df319 9999 0 devflux
df320 9999 0 devflux
df321 9999 0 devflux
df322 9999 0 devflux
df323 9999 0 devflux
df324 9999 0 devflux
df325 9999 0 devflux
df326 9999 0 devflux
df327 9999 0 devflux
df328 9999 0 devflux
df329 9999 0 devflux
df330 9999 0 devflux
df331 9999 0 devflux
df332 9999 0 devflux
df333 9999 0 devflux
df334 9999 0 devflux
df335 9999 0 devflux
df336 9999 0 devflux
df337 9999 0 devflux
df338 9999 0 devflux
df339 9999 0 devflux
df340 9999 0 devflux
df341 9999 0 devflux
df342 9999 0 devflux
df343 9999 0 devflux
df344 9999 0 devflux
df345 9999 0 devflux
df346 9999 0 devflux
df347 9999 0 devflux
df348 9999 0 devflux
df349 9999 0 devflux
df350 9999 0 devflux
df351 9999 0 devflux
df352 9999 0 devflux
df353 9999 0 devflux
df354 9999 0 devflux
df355 9999 0 devflux
df356 9999 0 devflux
df357 9999 0 devflux
df358 9999 0 devflux
df359 9999 0 devflux
df360 9999 0 devflux
df361 9999 0 devflux
df362 9999 0 devflux
df363 9999 0 devflux
df364 9999 0 devflux
df365 9999 0 devflux
df366 9999 0 devflux
df367 9999 0 devflux
df368 9999 0 devflux
df369 9999 0 devflux
df370 9999 0 devflux
df371 9999 0 devflux
df372 9999 0 devflux
df373 9999 0 devflux
df374 9999 0 devflux
df375 9999 0 devflux
df376 9999 0 devflux
df377 9999 0 devflux
df378 9999 0 devflux
df379 9999 0 devflux
df380 9999 0 devflux
df381 9999 0 devflux
df382 9999 0 devflux
df383 9999 0 devflux
df384 9999 0 devflux
df385 9999 0 devflux
df386 9999 0 devflux
df387 9999 0 devflux
df388 9999 0 devflux
df389 9999 0 devflux
df390 9999 0 devflux
df391 9999 0 devflux
df392 9999 0 devflux
df393 9999 0 devflux
df394 9999 0 devflux
df395 9999 0 devflux
df396 9999 0 devflux
df397 9999 0 devflux
df398 9999 0 devflux
df399 9999 0 devflux
df400 9999 0 devflux
df401 9999 0 devflux
df402 9999 0 devflux
df403 9999 0 devflux
df404 9999 0 devflux
df405 9999 0 devflux
df406 9999 0 devflux
df407 9999 0 devflux
df408 9999 0 devflux
df409 9999 0 devflux
df410 9999 0 devflux
df411 9999 0 devflux
df412 9999 0 devflux
df413 9999 0 devflux
df414 9999 0 devflux
df415 9999 0 devflux
df416 9999 0 devflux
df417 9999 0 devflux
df418 9999 0 devflux
df419 9999 0 devflux
df420 9999 0 devflux
df421 9999 0 devflux
df422 9999 0 devflux
df423 9999 0 devflux
df424 9999 0 devflux
df425 9999 0 devflux
df426 9999 0 devflux
df427 9999 0 devflux
df428 9999 0 devflux
df429 9999 0 devflux
df430 9999 0 devflux
df431 9999 0 devflux
df432 9999 0 devflux
df433 9999 0 devflux
df434 9999 0 devflux
df435 9999 0 devflux
df436 9999 0 devflux
df437 9999 0 devflux
df438 9999 0 devflux
df439 9999 0 devflux
df440 9999 0 devflux
df441 9999 0 devflux
df442 9999 0 devflux
df443 9999 0 devflux
df444 9999 0 devflux
df445 9999 0 devflux
df446 9999 0 devflux
df447 9999 0 devflux
df448 9999 0 devflux
df449 9999 0 devflux
df450 9999 0 devflux
df451 9999 0 devflux
df452 9999 0 devflux
df453 9999 0 devflux
df454 9999 0 devflux
df455 9999 0 devflux
df456 9999 0 devflux
df457 9999 0 devflux
df458 9999 0 devflux
df459 9999 0 devflux
df460 9999 0 devflux
df461 9999 0 devflux
df462 9999 0 devflux
df463 9999 0 devflux
df464 9999 0 devflux
df465 9999 0 devflux
df466 9999 0 devflux
df467 9999 0 devflux
df468 9999 0 devflux
df469 9999 0 devflux
df470 9999 0 devflux
df471 9999 0 devflux
df472 9999 0 devflux
df473 9999 0 devflux
df474 9999 0 devflux
df475 9999 0 devflux
df476 9999 0 devflux
df477 9999 0 devflux
df478 9999 0 devflux
df479 9999 0 devflux
df480 9999 0 devflux
df481 9999 0 devflux
df482 9999 0 devflux
df483 9999 0 devflux
df484 9999 0 devflux
df485 9999 0 devflux
df486 9999 0 devflux
df487 9999 0 devflux
df488 9999 0 devflux
df489 9999 0 devflux
df490 9999 0 devflux
df491 9999 0 devflux
df492 9999 0 devflux
df493 9999 0 devflux
df494 9999 0 devflux
df495 9999 0 devflux
df496 9999 0 devflux
df497 9999 0 devflux
df498 9999 0 devflux
df499 9999 0 devflux
df500 9999 0 devflux
df501 9999 0 devflux
df502 9999 0 devflux
df503 9999 0 devflux
df504 9999 0 devflux
df505 9999 0 devflux
df506 9999 0 devflux
df507 9999 0 devflux
df508 9999 0 devflux
df509 9999 0 devflux
df510 9999 0 devflux
df511 9999 0 devflux
df512 9999 0 devflux
df513 9999 0 devflux
df514 9999 0 devflux
df515 9999 0 devflux
df516 9999 0 devflux
df517 9999 0 devflux
df518 9999 0 devflux
df519 9999 0 devflux
df520 9999 0 devflux
df521 9999 0 devflux
df522 9999 0 devflux
df523 56809440 6.82164E-08 devflux
df524 54727315.2 6.82164E-08 devflux
df525 87639984 6.82164E-08 devflux
df526 62627587.2 6.82164E-08 devflux
df527 41501577.6 6.82164E-08 devflux
df528 35034739.2 6.82164E-08 devflux
df529 30402028.8 6.82164E-08 devflux
df530 47691590.4 6.82164E-08 devflux
df531 61825449.6 6.82164E-08 devflux
df532 55909584 6.82164E-08 devflux
df533 48605068.8 6.82164E-08 devflux
df534 48375878.4 6.82164E-08 devflux
df535 39120537.6 6.82164E-08 devflux
df536 47830723.2 6.82164E-08 devflux
df537 50671814.4 6.82164E-08 devflux
df538 31419129.6 6.82164E-08 devflux
df539 52055539.2 6.82164E-08 devflux
df540 30170851.2 6.82164E-08 devflux
df541 72357955.2 6.82164E-08 devflux
df542 38087222.4 6.82164E-08 devflux
df543 62839728 6.82164E-08 devflux
df544 154106323.2 6.82164E-08 devflux
df545 96665068.8 6.82164E-08 devflux
df546 144635673.6 6.82164E-08 devflux
df547 294816758.4 6.82164E-08 devflux
df548 68039596.8 6.82164E-08 devflux
df549 60638601.6 6.82164E-08 devflux
df550 64284854.4 6.82164E-08 devflux
df551 57112128 6.82164E-08 devflux
df552 58117075.2 6.82164E-08 devflux
df553 93988944 6.82164E-08 devflux
df554 42275001.6 6.82164E-08 devflux
df555 41814691.2 6.82164E-08 devflux
df556 87022108.8 6.82164E-08 devflux
df557 422733225.6 6.82164E-08 devflux
df558 81813571.2 6.82164E-08 devflux
df559 179580124.8 6.82164E-08 devflux
df560 62681328 6.82164E-08 devflux
df561 63774144 6.82164E-08 devflux
df562 44654860.8 6.82164E-08 devflux
df563 45243907.2 6.82164E-08 devflux
df564 37807833.6 6.82164E-08 devflux
df565 33582067.2 6.82164E-08 devflux
df566 44294572.8 6.82164E-08 devflux
df567 44705520 6.82164E-08 devflux
df568 44080358.4 6.82164E-08 devflux
df569 51950937.6 6.82164E-08 devflux
df570 232747977.6 6.82164E-08 devflux
df571 268159219.2 6.82164E-08 devflux
df572 91850774.4 6.82164E-08 devflux
df573 51260572.8 6.82164E-08 devflux
df574 43562448 6.82164E-08 devflux
df575 33244675.2 6.82164E-08 devflux
df576 35431516.8 6.82164E-08 devflux
df577 23915001.6 6.82164E-08 devflux
df578 24222124.8 6.82164E-08 devflux
df579 29425536 6.82164E-08 devflux
df580 27994348.8 6.82164E-08 devflux
df581 39716582.4 7.86143E-08 devflux
df582 39145334.4 7.86143E-08 devflux
df583 69450105.6 7.86143E-08 devflux
df584 44472009.6 7.86143E-08 devflux
df585 16431696 7.86143E-08 devflux
df586 23384822.4 7.86143E-08 devflux
df587 17668512 7.86143E-08 devflux
df588 31706611.2 7.86143E-08 devflux
df589 42377875.2 7.86143E-08 devflux
df590 39075840 7.86143E-08 devflux
df591 32625216 7.86143E-08 devflux
df592 32170147.2 7.86143E-08 devflux
df593 29745561.6 7.86143E-08 devflux
df594 32193705.6 7.86143E-08 devflux
df595 36898617.6 7.86143E-08 devflux
df596 25306704 7.86143E-08 devflux
df597 39040617.6 7.86143E-08 devflux
df598 19206460.8 7.86143E-08 devflux
df599 62028172.8 7.86143E-08 devflux
df600 58487097.6 7.86143E-08 devflux
df601 47459433.6 7.86143E-08 devflux
df602 199572566.4 7.86143E-08 devflux
df603 75663993.6 7.86143E-08 devflux
df604 149603270.4 7.86143E-08 devflux
df605 348257404.8 7.86143E-08 devflux
df606 49854729.6 7.86143E-08 devflux
df607 40968230.4 7.86143E-08 devflux
df608 33394550.4 7.86143E-08 devflux
df609 37373241.6 7.86143E-08 devflux
df610 40551552 7.86143E-08 devflux
df611 142269897.6 7.86143E-08 devflux
df612 28965225.6 7.86143E-08 devflux
df613 29880259.2 7.86143E-08 devflux
df614 71784576 7.86143E-08 devflux
df615 422721158.4 7.86143E-08 devflux
df616 59239440 7.86143E-08 devflux
df617 194103244.8 7.86143E-08 devflux
df618 69942729.6 7.86143E-08 devflux
df619 49639737.6 7.86143E-08 devflux
df620 31603190.4 7.86143E-08 devflux
df621 30672144 7.86143E-08 devflux
df622 26785497.6 7.86143E-08 devflux
df623 26758051.2 7.86143E-08 devflux
df624 31414924.8 7.86143E-08 devflux
df625 29173219.2 7.86143E-08 devflux
df626 29441001.6 7.86143E-08 devflux
df627 33875827.2 7.86143E-08 devflux
df628 198921600 7.86143E-08 devflux
df629 233488339.2 7.86143E-08 devflux
df630 79109913.6 7.86143E-08 devflux
df631 46623139.2 7.86143E-08 devflux
df632 31301654.4 7.86143E-08 devflux
df633 23830300.8 7.86143E-08 devflux
df634 24059779.2 7.86143E-08 devflux
df635 16753910.4 7.86143E-08 devflux
df636 14161708.8 7.86143E-08 devflux
df637 19295510.4 7.86143E-08 devflux
df638 14533344 7.86143E-08 devflux
df639 1760860.8 6.25382E-06 devflux
df640 1610668.8 6.25382E-06 devflux
df641 1794326.4 6.25382E-06 devflux
df642 1922688 6.25382E-06 devflux
df643 840067.2 6.25382E-06 devflux
df644 1663257.6 6.25382E-06 devflux
df645 814291.2 6.25382E-06 devflux
df646 923097.6 6.25382E-06 devflux
df647 1660291.2 6.25382E-06 devflux
df648 1806249.6 6.25382E-06 devflux
df649 1275148.8 6.25382E-06 devflux
df650 1474416 6.25382E-06 devflux
df651 1037836.8 6.25382E-06 devflux
df652 749923.2 6.25382E-06 devflux
df653 1759276.8 6.25382E-06 devflux
df654 879350.4 6.25382E-06 devflux
df655 1727625.6 6.25382E-06 devflux
df656 70617.6 6.25382E-06 devflux
df657 428313.6 6.25382E-06 devflux
df658 1073289.6 6.25382E-06 devflux
df659 1248854.4 6.25382E-06 devflux
df660 224611.2 6.25382E-06 devflux
df661 59644.8 6.25382E-06 devflux
df662 1763366.4 6.25382E-06 devflux
df663 860832 6.25382E-06 devflux
df664 1330790.4 6.25382E-06 devflux
df665 203644.8 6.25382E-06 devflux
df666 770659.2 6.25382E-06 devflux
df667 452736 6.25382E-06 devflux
df668 1476201.6 6.25382E-06 devflux
df669 1813680 6.25382E-06 devflux
df670 328320 6.25382E-06 devflux
df671 613440 6.25382E-06 devflux
df672 1314547.2 6.25382E-06 devflux
df673 1224115.2 6.25382E-06 devflux
df674 309974.4 6.25382E-06 devflux
df675 1125648 6.25382E-06 devflux
df676 1012896 6.25382E-06 devflux
df677 536342.4 6.25382E-06 devflux
df678 321062.4 6.25382E-06 devflux
df679 451900.8 6.25382E-06 devflux
df680 16502.4 6.25382E-06 devflux
df681 151315.2 6.25382E-06 devflux
df682 268761.6 6.25382E-06 devflux
df683 98899.2 6.25382E-06 devflux
df684 58377.6 6.25382E-06 devflux
df685 133747.2 6.25382E-06 devflux
df686 506649.6 6.25382E-06 devflux
df687 363427.2 6.25382E-06 devflux
df688 1077120 6.25382E-06 devflux
df689 502300.8 6.25382E-06 devflux
df690 324777.6 6.25382E-06 devflux
df691 592041.6 6.25382E-06 devflux
df692 275932.8 6.25382E-06 devflux
df693 30988.8 6.25382E-06 devflux
df694 7689.6 6.25382E-06 devflux
df695 162892.8 6.25382E-06 devflux
df696 31766.4 0 devflux
df697 9999 0 devflux
df698 9999 0 devflux
df699 9999 0 devflux
df700 9999 0 devflux
df701 9999 0 devflux
df702 9999 0 devflux
df703 9999 0 devflux
df704 9999 0 devflux
df705 9999 0 devflux
df706 9999 0 devflux
df707 9999 0 devflux
df708 9999 0 devflux
df709 9999 0 devflux
df710 9999 0 devflux
df711 9999 0 devflux
df712 9999 0 devflux
df713 9999 0 devflux
df714 9999 0 devflux
df715 9999 0 devflux
df716 9999 0 devflux
df717 9999 0 devflux
df718 9999 0 devflux
df719 9999 0 devflux
df720 9999 0 devflux
df721 9999 0 devflux
df722 9999 0 devflux
df723 9999 0 devflux
df724 9999 0 devflux
df725 9999 0 devflux
df726 9999 0 devflux
df727 9999 0 devflux
df728 9999 0 devflux
df729 9999 0 devflux
df730 9999 0 devflux
df731 9999 0 devflux
df732 9999 0 devflux
df733 9999 0 devflux
df734 9999 0 devflux
df735 9999 0 devflux
df736 9999 0 devflux
df737 9999 0 devflux
df738 9999 0 devflux
df739 9999 0 devflux
df740 9999 0 devflux
df741 9999 0 devflux
df742 9999 0 devflux
df743 9999 0 devflux
df744 9999 0 devflux
df745 9999 0 devflux
df746 9999 0 devflux
df747 9999 0 devflux
df748 9999 0 devflux
df749 9999 0 devflux
df750 9999 0 devflux
df751 9999 0 devflux
df752 9999 0 devflux
df753 9999 0 devflux
df754 9999 0 devflux
df755 9999 0 devflux
df756 9999 0 devflux
df757 9999 0 devflux
df758 9999 0 devflux
df759 9999 0 devflux
df760 9999 0 devflux
df761 9999 0 devflux
df762 9999 0 devflux
df763 9999 0 devflux
df764 9999 0 devflux
df765 9999 0 devflux
df766 9999 0 devflux
df767 9999 0 devflux
df768 9999 0 devflux
df769 9999 0 devflux
df770 9999 0 devflux
df771 9999 0 devflux
df772 9999 0 devflux
df773 9999 0 devflux
df774 9999 0 devflux
df775 9999 0 devflux
df776 9999 0 devflux
df777 9999 0 devflux
df778 9999 0 devflux
df779 9999 0 devflux
df780 9999 0 devflux
df781 9999 0 devflux
df782 9999 0 devflux
df783 9999 0 devflux
df784 9999 0 devflux
df785 9999 0 devflux
df786 9999 0 devflux
df787 9999 0 devflux
df788 9999 0 devflux
df789 9999 0 devflux
df790 9999 0 devflux
df791 9999 0 devflux
df792 9999 0 devflux
df793 9999 0 devflux
df794 9999 0 devflux
df795 9999 0 devflux
df796 9999 0 devflux
df797 9999 0 devflux
df798 9999 0 devflux
df799 9999 0 devflux
df800 9999 0 devflux
df801 9999 0 devflux
df802 9999 0 devflux
df803 9999 0 devflux
df804 9999 0 devflux
df805 9999 0 devflux
df806 9999 0 devflux
df807 9999 0 devflux
df808 9999 0 devflux
df809 9999 0 devflux
df810 9999 0 devflux
df811 9999 0 devflux
df812 9999 0 devflux
df813 20668809.6 1.06007E-07 devflux
df814 25313990.4 1.06007E-07 devflux
df815 50504054.4 1.06007E-07 devflux
df816 25745241.6 1.06007E-07 devflux
df817 14936400 1.06007E-07 devflux
df818 18057859.2 1.06007E-07 devflux
df819 16654147.2 1.06007E-07 devflux
df820 17347161.6 1.06007E-07 devflux
df821 23972716.8 1.06007E-07 devflux
df822 24094569.6 1.06007E-07 devflux
df823 19805875.2 1.06007E-07 devflux
df824 19328860.8 1.06007E-07 devflux
df825 21380774.4 1.06007E-07 devflux
df826 21798979.2 1.06007E-07 devflux
df827 23292662.4 1.06007E-07 devflux
df828 16528233.6 1.06007E-07 devflux
df829 21868502.4 1.06007E-07 devflux
df830 13505846.4 1.06007E-07 devflux
df831 45322214.4 1.06007E-07 devflux
df832 52031030.4 1.06007E-07 devflux
df833 30765600 1.06007E-07 devflux
df834 109480435.2 1.06007E-07 devflux
df835 55147881.6 1.06007E-07 devflux
df836 140957078.4 1.06007E-07 devflux
df837 335654726.4 1.06007E-07 devflux
df838 27716630.4 1.06007E-07 devflux
df839 23845651.2 1.06007E-07 devflux
df840 17881948.8 1.06007E-07 devflux
df841 21462019.2 1.06007E-07 devflux
df842 23071190.4 1.06007E-07 devflux
df843 119650435.2 1.06007E-07 devflux
df844 11615616 1.06007E-07 devflux
df845 8829417.6 1.06007E-07 devflux
df846 42943622.4 1.06007E-07 devflux
df847 330964560 1.06007E-07 devflux
df848 51611385.6 1.06007E-07 devflux
df849 158763859.2 1.06007E-07 devflux
df850 42197241.6 1.06007E-07 devflux
df851 26819136 1.06007E-07 devflux
df852 15392476.8 1.06007E-07 devflux
df853 15653462.4 1.06007E-07 devflux
df854 11955686.4 1.06007E-07 devflux
df855 12292819.2 1.06007E-07 devflux
df856 14241456 1.06007E-07 devflux
df857 13361731.2 1.06007E-07 devflux
df858 14944550.4 1.06007E-07 devflux
df859 24276643.2 1.06007E-07 devflux
df860 209782051.2 1.06007E-07 devflux
df861 243670550.4 1.06007E-07 devflux
df862 74959603.2 1.06007E-07 devflux
df863 23232153.6 1.06007E-07 devflux
df864 14668531.2 1.06007E-07 devflux
df865 7002432 1.06007E-07 devflux
df866 10823472 1.06007E-07 devflux
df867 3345696 1.06007E-07 devflux
df868 3557721.6 1.06007E-07 devflux
df869 6499756.8 1.06007E-07 devflux
df870 288518.4 1.06007E-07 devflux
df871 9999 0 devflux
df872 9999 0 devflux
df873 9999 0 devflux
df874 9999 0 devflux
df875 9999 0 devflux
df876 9999 0 devflux
df877 9999 0 devflux
df878 9999 0 devflux
df879 9999 0 devflux