pcf
* control data
restart regularisation
   2340  10001      6    4032     10
    5     2 single point   1   0   0
  5.0  -3.0   0.3  0.03   10     999
 12.0  12.0 0.001  0
  0.1
    0  0.01     3     3  0.01     3
    1     1     1
* lsqr
         1
    10E-06     10E-06  1000    7020
         0
* parameter groups
HK     relative 0.10  0.0  always_3  2.0 outside_pts
ANIZ   relative 0.10  0.0  always_3  2.0 outside_pts
HTR    relative 0.10  0.0  always_3  2.0 outside_pts
HT_Rat relative 0.10  0.0  always_3  2.0 outside_pts
ALFA   relative 0.10  0.0  always_3  2.0 outside_pts
THET   relative 0.10  0.0  always_3  2.0 outside_pts
* parameter data
hk_001          fixed  factor    999999.0      0.0000000e+00       99999999     hk      1.0000      0.0000   1
hk_002          fixed  factor    999999.0      0.0000000e+00       99999999     hk      1.0000      0.0000   1
hk_003          fixed  factor    999999.0      0.0000000e+00       99999999     hk      1.0000      0.0000   1
hk_004          fixed  factor    999999.0      0.0000000e+00       99999999     hk      1.0000      0.0000   1
hk_005          fixed  factor    999999.0      0.0000000e+00       99999999     hk      1.0000      0.0000   1
hk_006          fixed  factor    999999.0      0.0000000e+00       99999999     hk      1.0000      0.0000   1
hk_007          fixed  factor    999999.0      0.0000000e+00       99999999     hk      1.0000      0.0000   1
hk_008          fixed  factor    999999.0      0.0000000e+00       99999999     hk      1.0000      0.0000   1
hk_009          fixed  factor    999999.0      0.0000000e+00       99999999     hk      1.0000      0.0000   1
hk_010          fixed  factor    999999.0      0.0000000e+00       99999999     hk      1.0000      0.0000   1
hk_011          fixed  factor    999999.0      0.0000000e+00       99999999     hk      1.0000      0.0000   1
hk_012          fixed  factor    999999.0      0.0000000e+00       99999999     hk      1.0000      0.0000   1
hk_013          fixed  factor    999999.0      0.0000000e+00       99999999     hk      1.0000      0.0000   1
hk_014          fixed  factor    999999.0      0.0000000e+00       99999999     hk      1.0000      0.0000   1
hk_015          fixed  factor    999999.0      0.0000000e+00       99999999     hk      1.0000      0.0000   1
hk_016          fixed  factor    999999.0      0.0000000e+00       99999999     hk      1.0000      0.0000   1
hk_017          fixed  factor    999999.0      0.0000000e+00       99999999     hk      1.0000      0.0000   1
hk_018            log  factor   9.5531206E-04  1.0000000e-05  2.0100000e+01     hk      1.0000      0.0000   1
hk_019            log  factor   1.1666956E-03  1.0000000e-05  2.0100000e+01     hk      1.0000      0.0000   1
hk_020            log  factor   1.0109101E-03  1.0000000e-05  2.0100000e+01     hk      1.0000      0.0000   1
hk_021            log  factor   9.3203266E-04  1.0000000e-05  2.0100000e+01     hk      1.0000      0.0000   1
hk_022            log  factor   9.9119491E-04  1.0000000e-05  2.0100000e+01     hk      1.0000      0.0000   1
hk_023            log  factor   9.3662945E-04  1.0000000e-05  2.0100000e+01     hk      1.0000      0.0000   1
hk_024            log  factor   1.0388181E-03  1.0000000e-05  2.0100000e+01     hk      1.0000      0.0000   1
hk_025            log  factor   1.0429622E-03  1.0000000e-05  2.0100000e+01     hk      1.0000      0.0000   1
hk_026            log  factor   1.0222098E-03  1.0000000e-05  2.0100000e+01     hk      1.0000      0.0000   1
hk_027            log  factor   1.0035234E-03  1.0000000e-05  2.0100000e+01     hk      1.0000      0.0000   1
hk_028            log  factor   9.1721327E-04  1.0000000e-05  2.0100000e+01     hk      1.0000      0.0000   1
hk_029            log  factor   1.0477680E-03  1.0000000e-05  2.0100000e+01     hk      1.0000      0.0000   1
hk_030            log  factor   1.0482924E-03  1.0000000e-05  2.0100000e+01     hk      1.0000      0.0000   1
hk_031            log  factor   8.9338231E-04  1.0000000e-05  2.0100000e+01     hk      1.0000      0.0000   1
hk_032            log  factor   9.6499742E-04  1.0000000e-05  2.0100000e+01     hk      1.0000      0.0000   1
hk_033            log  factor   1.0374279E-03  1.0000000e-05  2.0100000e+01     hk      1.0000      0.0000   1
hk_034            log  factor   9.7436826E-04  1.0000000e-05  2.0100000e+01     hk      1.0000      0.0000   1
hk_035            log  factor   1.0503561E-03  1.0000000e-05  2.0100000e+01     hk      1.0000      0.0000   1
hk_036          fixed  factor    999999.0      0.0000000e+00       99999999     hk      1.0000      0.0000   1
hk_037          fixed  factor    999999.0      0.0000000e+00       99999999     hk      1.0000      0.0000   1
hk_038          fixed  factor    999999.0      0.0000000e+00       99999999     hk      1.0000      0.0000   1
hk_039          fixed  factor    999999.0      0.0000000e+00       99999999     hk      1.0000      0.0000   1
hk_040          fixed  factor    999999.0      0.0000000e+00       99999999     hk      1.0000      0.0000   1
hk_041          fixed  factor    999999.0      0.0000000e+00       99999999     hk      1.0000      0.0000   1
hk_042          fixed  factor    999999.0      0.0000000e+00       99999999     hk      1.0000      0.0000   1
hk_043          fixed  factor    999999.0      0.0000000e+00       99999999     hk      1.0000      0.0000   1
hk_044            log  factor   1.1396799E-03  1.0000000e-05  2.0100000e+01     hk      1.0000      0.0000   1
hk_045            log  factor   9.3658424E-04  1.0000000e-05  2.0100000e+01     hk      1.0000      0.0000   1
hk_046            log  factor   9.5554294E-04  1.0000000e-05  2.0100000e+01     hk      1.0000      0.0000   1
hk_047            log  factor   9.0007565E-04  1.0000000e-05  2.0100000e+01     hk      1.0000      0.0000   1
hk_048            log  factor   1.0425092E-03  1.0000000e-05  2.0100000e+01     hk      1.0000      0.0000   1
hk_049            log  factor   1.0467181E-03  1.0000000e-05  2.0100000e+01     hk      1.0000      0.0000   1
hk_050            log  factor   1.0891363E-03  1.0000000e-05  2.0100000e+01     hk      1.0000      0.0000   1
hk_051            log  factor   9.9730815E-04  1.0000000e-05  2.0100000e+01     hk      1.0000      0.0000   1
hk_052            log  factor   9.2660261E-04  1.0000000e-05  2.0100000e+01     hk      1.0000      0.0000   1
hk_053            log  factor   1.0431217E-03  1.0000000e-05  2.0100000e+01     hk      1.0000      0.0000   1
hk_054            log  factor   1.0019154E-03  1.0000000e-05  2.0100000e+01     hk      1.0000      0.0000   1
hk_055            log  factor   1.0429064E-03  1.0000000e-05  2.0100000e+01     hk      1.0000      0.0000   1
hk_056            log  factor   1.0834622E-03  1.0000000e-05  2.0100000e+01     hk      1.0000      0.0000   1
hk_057            log  factor   1.1624545E-03  1.0000000e-05  2.0100000e+01     hk      1.0000      0.0000   1
hk_058            log  factor   9.5928240E-04  1.0000000e-05  2.0100000e+01     hk      1.0000      0.0000   1
hk_059            log  factor   9.6932584E-04  1.0000000e-05  2.0100000e+01     hk      1.0000      0.0000   1
hk_060            log  factor   8.4900381E-04  1.0000000e-05  2.0100000e+01     hk      1.0000      0.0000   1
hk_061            log  factor   1.6578445E-03  1.0000000e-05  2.0100000e+01     hk      1.0000      0.0000   1
hk_062            log  factor   0.3583672      1.0000000e-05  2.0100000e+01     hk      1.0000      0.0000   1
hk_063          fixed  factor    999999.0      0.0000000e+00       99999999     hk      1.0000      0.0000   1
hk_064          fixed  factor    999999.0      0.0000000e+00       99999999     hk      1.0000      0.0000   1
hk_065          fixed  factor    999999.0      0.0000000e+00       99999999     hk      1.0000      0.0000   1
hk_066          fixed  factor    999999.0      0.0000000e+00       99999999     hk      1.0000      0.0000   1
hk_067          fixed  factor    999999.0      0.0000000e+00       99999999     hk      1.0000      0.0000   1
hk_068          fixed  factor    999999.0      0.0000000e+00       99999999     hk      1.0000      0.0000   1
hk_069            log  factor   1.0867220E-03  1.0000000e-05  2.0100000e+01     hk      1.0000      0.0000   1
hk_070            log  factor   9.9789736E-04  1.0000000e-05  2.0100000e+01     hk      1.0000      0.0000   1
hk_071            log  factor   1.1097195E-03  1.0000000e-05  2.0100000e+01     hk      1.0000      0.0000   1
hk_072            log  factor   8.4707401E-04  1.0000000e-05  2.0100000e+01     hk      1.0000      0.0000   1
hk_073            log  factor   1.1611400E-03  1.0000000e-05  2.0100000e+01     hk      1.0000      0.0000   1
hk_074            log  factor   9.6820192E-04  1.0000000e-05  2.0100000e+01     hk      1.0000      0.0000   1
hk_075            log  factor   9.2684856E-04  1.0000000e-05  2.0100000e+01     hk      1.0000      0.0000   1
hk_076            log  factor   8.0312907E-04  1.0000000e-05  2.0100000e+01     hk      1.0000      0.0000   1
hk_077            log  factor   1.0892896E-03  1.0000000e-05  2.0100000e+01     hk      1.0000      0.0000   1
hk_078            log  factor   1.0705533E-03  1.0000000e-05  2.0100000e+01     hk      1.0000      0.0000   1
hk_079            log  factor   1.0739088E-03  1.0000000e-05  2.0100000e+01     hk      1.0000      0.0000   1
hk_080            log  factor   9.6091651E-04  1.0000000e-05  2.0100000e+01     hk      1.0000      0.0000   1
hk_081            log  factor   9.7414942E-04  1.0000000e-05  2.0100000e+01     hk      1.0000      0.0000   1
hk_082            log  factor   9.5563733E-04  1.0000000e-05  2.0100000e+01     hk      1.0000      0.0000   1
hk_083            log  factor   1.1724610E-03  1.0000000e-05  2.0100000e+01     hk      1.0000      0.0000   1
hk_084            log  factor   1.0824079E-03  1.0000000e-05  2.0100000e+01     hk      1.0000      0.0000   1
hk_085            log  factor   1.2336883E-03  1.0000000e-05  2.0100000e+01     hk      1.0000      0.0000   1
hk_086            log  factor   8.9407386E-04  1.0000000e-05  2.0100000e+01     hk      1.0000      0.0000   1
hk_087            log  factor   9.8669921E-04  1.0000000e-05  2.0100000e+01     hk      1.0000      0.0000   1
hk_088            log  factor   2.7284107E-03  1.0000000e-05  2.0100000e+01     hk      1.0000      0.0000   1
hk_089            log  factor   0.5952045      1.0000000e-05  2.0100000e+01     hk      1.0000      0.0000   1
hk_090          fixed  factor    999999.0      0.0000000e+00       99999999     hk      1.0000      0.0000   1
hk_091          fixed  factor    999999.0      0.0000000e+00       99999999     hk      1.0000      0.0000   1
hk_092          fixed  factor    999999.0      0.0000000e+00       99999999     hk      1.0000      0.0000   1
hk_093          fixed  factor    999999.0      0.0000000e+00       99999999     hk      1.0000      0.0000   1
hk_094            log  factor   0.5366627      1.0000000e-05  2.0100000e+01     hk      1.0000      0.0000   1
hk_095            log  factor   1.8120822E-03  1.0000000e-05  2.0100000e+01     hk      1.0000      0.0000   1
hk_096            log  factor   9.8069388E-04  1.0000000e-05  2.0100000e+01     hk      1.0000      0.0000   1
hk_097            log  factor   8.0803297E-04  1.0000000e-05  2.0100000e+01     hk      1.0000      0.0000   1
hk_098            log  factor   1.1149041E-03  1.0000000e-05  2.0100000e+01     hk      1.0000      0.0000   1
hk_099            log  factor   1.0387659E-03  1.0000000e-05  2.0100000e+01     hk      1.0000      0.0000   1
hk_100            log  factor   8.6978295E-04  1.0000000e-05  2.0100000e+01     hk      1.0000      0.0000   1
hk_101            log  factor   9.5570082E-04  1.0000000e-05  2.0100000e+01     hk      1.0000      0.0000   1
hk_102            log  factor   9.7907312E-04  1.0000000e-05  2.0100000e+01     hk      1.0000      0.0000   1
hk_103            log  factor   1.1273369E-03  1.0000000e-05  2.0100000e+01     hk      1.0000      0.0000   1
hk_104            log  factor   9.3450811E-04  1.0000000e-05  2.0100000e+01     hk      1.0000      0.0000   1
hk_105            log  factor   9.2198182E-04  1.0000000e-05  2.0100000e+01     hk      1.0000      0.0000   1
hk_106            log  factor   9.9353763E-04  1.0000000e-05  2.0100000e+01     hk      1.0000      0.0000   1
hk_107            log  factor   1.0274408E-03  1.0000000e-05  2.0100000e+01     hk      1.0000      0.0000   1
hk_108            log  factor   9.7118954E-04  1.0000000e-05  2.0100000e+01     hk      1.0000      0.0000   1
hk_109            log  factor   1.1463822E-03  1.0000000e-05  2.0100000e+01     hk      1.0000      0.0000   1
hk_110            log  factor   7.9902090E-04  1.0000000e-05  2.0100000e+01     hk      1.0000      0.0000   1
hk_111            log  factor   1.2575334E-03  1.0000000e-05  2.0100000e+01     hk      1.0000      0.0000   1
hk_112            log  factor   9.6811417E-04  1.0000000e-05  2.0100000e+01     hk      1.0000      0.0000   1
hk_113            log  factor   1.0040689E-03  1.0000000e-05  2.0100000e+01     hk      1.0000      0.0000   1
hk_114            log  factor   1.5414340E-03  1.0000000e-05  2.0100000e+01     hk      1.0000      0.0000   1
hk_115            log  factor   0.5538136      1.0000000e-05  2.0100000e+01     hk      1.0000      0.0000   1
hk_116          fixed  factor    999999.0      0.0000000e+00       99999999     hk      1.0000      0.0000   1
hk_117          fixed  factor    999999.0      0.0000000e+00       99999999     hk      1.0000      0.0000   1
hk_118          fixed  factor    999999.0      0.0000000e+00       99999999     hk      1.0000      0.0000   1
hk_119          fixed  factor    999999.0      0.0000000e+00       99999999     hk      1.0000      0.0000   1
hk_120            log  factor   0.5598465      1.0000000e-05  2.0100000e+01     hk      1.0000      0.0000   1
hk_121            log  factor   1.6712700E-03  1.0000000e-05  2.0100000e+01     hk      1.0000      0.0000   1
hk_122            log  factor   9.8422828E-04  1.0000000e-05  2.0100000e+01     hk      1.0000      0.0000   1
hk_123            log  factor   8.5439132E-04  1.0000000e-05  2.0100000e+01     hk      1.0000      0.0000   1
hk_124            log  factor   9.7774806E-04  1.0000000e-05  2.0100000e+01     hk      1.0000      0.0000   1
hk_125            log  factor   7.5979919E-04  1.0000000e-05  2.0100000e+01     hk      1.0000      0.0000   1
hk_126            log  factor   1.1074384E-03  1.0000000e-05  2.0100000e+01     hk      1.0000      0.0000   1
hk_127            log  factor   9.4752486E-04  1.0000000e-05  2.0100000e+01     hk      1.0000      0.0000   1
hk_128            log  factor   1.0486058E-03  1.0000000e-05  2.0100000e+01     hk      1.0000      0.0000   1
hk_129            log  factor   1.1189094E-03  1.0000000e-05  2.0100000e+01     hk      1.0000      0.0000   1
hk_130            log  factor   1.2150111E-03  1.0000000e-05  2.0100000e+01     hk      1.0000      0.0000   1
hk_131            log  factor   9.8652496E-04  1.0000000e-05  2.0100000e+01     hk      1.0000      0.0000   1
hk_132            log  factor   8.3200784E-04  1.0000000e-05  2.0100000e+01     hk      1.0000      0.0000   1
hk_133            log  factor   9.8584295E-04  1.0000000e-05  2.0100000e+01     hk      1.0000      0.0000   1
hk_134            log  factor   9.2782998E-04  1.0000000e-05  2.0100000e+01     hk      1.0000      0.0000   1
hk_135            log  factor   9.9688319E-04  1.0000000e-05  2.0100000e+01     hk      1.0000      0.0000   1
hk_136            log  factor   1.0028654E-03  1.0000000e-05  2.0100000e+01     hk      1.0000      0.0000   1
hk_137            log  factor   1.1472802E-03  1.0000000e-05  2.0100000e+01     hk      1.0000      0.0000   1
hk_138            log  factor   1.2908895E-03  1.0000000e-05  2.0100000e+01     hk      1.0000      0.0000   1
hk_139            log  factor   1.1000501E-03  1.0000000e-05  2.0100000e+01     hk      1.0000      0.0000   1
hk_140            log  factor   1.4391169E-03  1.0000000e-05  2.0100000e+01     hk      1.0000      0.0000   1
hk_141            log  factor   0.5670017      1.0000000e-05  2.0100000e+01     hk      1.0000      0.0000   1
hk_142            log  factor   0.9349543      1.0000000e-05  2.0100000e+01     hk      1.0000      0.0000   1
hk_143            log  factor   0.7343777      1.0000000e-05  2.0100000e+01     hk      1.0000      0.0000   1
hk_144            log  factor    1.277697      1.0000000e-05  2.0100000e+01     hk      1.0000      0.0000   1
hk_145            log  factor    1.445293      1.0000000e-05  2.0100000e+01     hk      1.0000      0.0000   1
hk_146            log  factor   0.5651865      1.0000000e-05  2.0100000e+01     hk      1.0000      0.0000   1
hk_147            log  factor   1.9969215E-03  1.0000000e-05  2.0100000e+01     hk      1.0000      0.0000   1
hk_148            log  factor   9.0931647E-04  1.0000000e-05  2.0100000e+01     hk      1.0000      0.0000   1
hk_149            log  factor   1.3132050E-03  1.0000000e-05  2.0100000e+01     hk      1.0000      0.0000   1
hk_150            log  factor   9.6142911E-04  1.0000000e-05  2.0100000e+01     hk      1.0000      0.0000   1
hk_151            log  factor   1.1778206E-03  1.0000000e-05  2.0100000e+01     hk      1.0000      0.0000   1
hk_152            log  factor   8.9267439E-04  1.0000000e-05  2.0100000e+01     hk      1.0000      0.0000   1
hk_153            log  factor   9.5279943E-04  1.0000000e-05  2.0100000e+01     hk      1.0000      0.0000   1
hk_154            log  factor   1.1386731E-03  1.0000000e-05  2.0100000e+01     hk      1.0000      0.0000   1
hk_155            log  factor   9.7246146E-04  1.0000000e-05  2.0100000e+01     hk      1.0000      0.0000   1
hk_156            log  factor   1.0741225E-03  1.0000000e-05  2.0100000e+01     hk      1.0000      0.0000   1
hk_157            log  factor   9.9255502E-04  1.0000000e-05  2.0100000e+01     hk      1.0000      0.0000   1
hk_158            log  factor   1.0288829E-03  1.0000000e-05  2.0100000e+01     hk      1.0000      0.0000   1
hk_159            log  factor   1.0126083E-03  1.0000000e-05  2.0100000e+01     hk      1.0000      0.0000   1
hk_160            log  factor   1.0669004E-03  1.0000000e-05  2.0100000e+01     hk      1.0000      0.0000   1
hk_161            log  factor   9.3193287E-04  1.0000000e-05  2.0100000e+01     hk      1.0000      0.0000   1
hk_162            log  factor   1.0582735E-03  1.0000000e-05  2.0100000e+01     hk      1.0000      0.0000   1
hk_163            log  factor   1.0955645E-03  1.0000000e-05  2.0100000e+01     hk      1.0000      0.0000   1
hk_164            log  factor   1.2083323E-03  1.0000000e-05  2.0100000e+01     hk      1.0000      0.0000   1
hk_165            log  factor   8.2816354E-04  1.0000000e-05  2.0100000e+01     hk      1.0000      0.0000   1
hk_166            log  factor   1.3593384E-03  1.0000000e-05  2.0100000e+01     hk      1.0000      0.0000   1
hk_167            log  factor   0.4051747      1.0000000e-05  2.0100000e+01     hk      1.0000      0.0000   1
hk_168            log  factor   0.7652231      1.0000000e-05  2.0100000e+01     hk      1.0000      0.0000   1
hk_169            log  factor   0.4545849      1.0000000e-05  2.0100000e+01     hk      1.0000      0.0000   1
hk_170            log  factor   0.7301211      1.0000000e-05  2.0100000e+01     hk      1.0000      0.0000   1
hk_171            log  factor   0.4899310      1.0000000e-05  2.0100000e+01     hk      1.0000      0.0000   1
hk_172            log  factor   0.4958845      1.0000000e-05  2.0100000e+01     hk      1.0000      0.0000   1
hk_173            log  factor   1.3813420E-03  1.0000000e-05  2.0100000e+01     hk      1.0000      0.0000   1
hk_174            log  factor   9.5216803E-04  1.0000000e-05  2.0100000e+01     hk      1.0000      0.0000   1
hk_175            log  factor   9.4492342E-04  1.0000000e-05  2.0100000e+01     hk      1.0000      0.0000   1
hk_176            log  factor   9.3851727E-04  1.0000000e-05  2.0100000e+01     hk      1.0000      0.0000   1
hk_177            log  factor   9.3201343E-04  1.0000000e-05  2.0100000e+01     hk      1.0000      0.0000   1
hk_178            log  factor   9.0756477E-04  1.0000000e-05  2.0100000e+01     hk      1.0000      0.0000   1
hk_179            log  factor   1.1519425E-03  1.0000000e-05  2.0100000e+01     hk      1.0000      0.0000   1
hk_180            log  factor   9.9815708E-04  1.0000000e-05  2.0100000e+01     hk      1.0000      0.0000   1
hk_181            log  factor   1.0123256E-03  1.0000000e-05  2.0100000e+01     hk      1.0000      0.0000   1
hk_182            log  factor   9.6702923E-04  1.0000000e-05  2.0100000e+01     hk      1.0000      0.0000   1
hk_183            log  factor   9.9235682E-04  1.0000000e-05  2.0100000e+01     hk      1.0000      0.0000   1
hk_184            log  factor   1.0006147E-03  1.0000000e-05  2.0100000e+01     hk      1.0000      0.0000   1
hk_185            log  factor   1.0042978E-03  1.0000000e-05  2.0100000e+01     hk      1.0000      0.0000   1
hk_186            log  factor   9.8346719E-04  1.0000000e-05  2.0100000e+01     hk      1.0000      0.0000   1
hk_187            log  factor   1.0855116E-03  1.0000000e-05  2.0100000e+01     hk      1.0000      0.0000   1
hk_188            log  factor   8.0947503E-04  1.0000000e-05  2.0100000e+01     hk      1.0000      0.0000   1
hk_189            log  factor   9.8359301E-04  1.0000000e-05  2.0100000e+01     hk      1.0000      0.0000   1
hk_190            log  factor   9.2514873E-04  1.0000000e-05  2.0100000e+01     hk      1.0000      0.0000   1
hk_191            log  factor   1.0250269E-03  1.0000000e-05  2.0100000e+01     hk      1.0000      0.0000   1
hk_192            log  factor   1.2963299E-03  1.0000000e-05  2.0100000e+01     hk      1.0000      0.0000   1
hk_193            log  factor   1.3907972E-03  1.0000000e-05  2.0100000e+01     hk      1.0000      0.0000   1
hk_194            log  factor   1.9906656E-03  1.0000000e-05  2.0100000e+01     hk      1.0000      0.0000   1
hk_195            log  factor   1.9997138E-03  1.0000000e-05  2.0100000e+01     hk      1.0000      0.0000   1
hk_196            log  factor   1.5534193E-03  1.0000000e-05  2.0100000e+01     hk      1.0000      0.0000   1
hk_197            log  factor   2.1236408E-03  1.0000000e-05  2.0100000e+01     hk      1.0000      0.0000   1
hk_198            log  factor   1.4541770E-03  1.0000000e-05  2.0100000e+01     hk      1.0000      0.0000   1
hk_199            log  factor   8.1209965E-04  1.0000000e-05  2.0100000e+01     hk      1.0000      0.0000   1
hk_200            log  factor   1.1171389E-03  1.0000000e-05  2.0100000e+01     hk      1.0000      0.0000   1
hk_201            log  factor   1.1029023E-03  1.0000000e-05  2.0100000e+01     hk      1.0000      0.0000   1
hk_202            log  factor   9.8525082E-04  1.0000000e-05  2.0100000e+01     hk      1.0000      0.0000   1
hk_203            log  factor   1.0489780E-03  1.0000000e-05  2.0100000e+01     hk      1.0000      0.0000   1
hk_204            log  factor   1.0376907E-03  1.0000000e-05  2.0100000e+01     hk      1.0000      0.0000   1
hk_205            log  factor   9.8683442E-04  1.0000000e-05  2.0100000e+01     hk      1.0000      0.0000   1
hk_206            log  factor   1.0414338E-03  1.0000000e-05  2.0100000e+01     hk      1.0000      0.0000   1
hk_207            log  factor   8.8976372E-04  1.0000000e-05  2.0100000e+01     hk      1.0000      0.0000   1
hk_208            log  factor   9.9681388E-04  1.0000000e-05  2.0100000e+01     hk      1.0000      0.0000   1
hk_209            log  factor   9.9996603E-04  1.0000000e-05  2.0100000e+01     hk      1.0000      0.0000   1
hk_210            log  factor   1.0172700E-03  1.0000000e-05  2.0100000e+01     hk      1.0000      0.0000   1
hk_211            log  factor   9.4829444E-04  1.0000000e-05  2.0100000e+01     hk      1.0000      0.0000   1
hk_212            log  factor   1.1350180E-03  1.0000000e-05  2.0100000e+01     hk      1.0000      0.0000   1
hk_213            log  factor   8.6872590E-04  1.0000000e-05  2.0100000e+01     hk      1.0000      0.0000   1
hk_214            log  factor   9.3793876E-04  1.0000000e-05  2.0100000e+01     hk      1.0000      0.0000   1
hk_215            log  factor   9.1607599E-04  1.0000000e-05  2.0100000e+01     hk      1.0000      0.0000   1
hk_216            log  factor   1.0338575E-03  1.0000000e-05  2.0100000e+01     hk      1.0000      0.0000   1
hk_217            log  factor   1.2301292E-03  1.0000000e-05  2.0100000e+01     hk      1.0000      0.0000   1
hk_218            log  factor   1.0848364E-03  1.0000000e-05  2.0100000e+01     hk      1.0000      0.0000   1
hk_219            log  factor   1.3106302E-03  1.0000000e-05  2.0100000e+01     hk      1.0000      0.0000   1
hk_220            log  factor   1.0439626E-03  1.0000000e-05  2.0100000e+01     hk      1.0000      0.0000   1
hk_221            log  factor   1.4632944E-03  1.0000000e-05  2.0100000e+01     hk      1.0000      0.0000   1
hk_222            log  factor   9.8267874E-04  1.0000000e-05  2.0100000e+01     hk      1.0000      0.0000   1
hk_223            log  factor   1.0653788E-03  1.0000000e-05  2.0100000e+01     hk      1.0000      0.0000   1
hk_224            log  factor   8.0519057E-04  1.0000000e-05  2.0100000e+01     hk      1.0000      0.0000   1
hk_225            log  factor   1.0367306E-03  1.0000000e-05  2.0100000e+01     hk      1.0000      0.0000   1
hk_226            log  factor   1.0937228E-03  1.0000000e-05  2.0100000e+01     hk      1.0000      0.0000   1
hk_227            log  factor   1.0773829E-03  1.0000000e-05  2.0100000e+01     hk      1.0000      0.0000   1
hk_228            log  factor   1.1312810E-03  1.0000000e-05  2.0100000e+01     hk      1.0000      0.0000   1
hk_229            log  factor   1.1153093E-03  1.0000000e-05  2.0100000e+01     hk      1.0000      0.0000   1
hk_230            log  factor   9.5866050E-04  1.0000000e-05  2.0100000e+01     hk      1.0000      0.0000   1
hk_231            log  factor   1.1168423E-03  1.0000000e-05  2.0100000e+01     hk      1.0000      0.0000   1
hk_232            log  factor   9.3106355E-04  1.0000000e-05  2.0100000e+01     hk      1.0000      0.0000   1
hk_233            log  factor   9.7519617E-04  1.0000000e-05  2.0100000e+01     hk      1.0000      0.0000   1
hk_234            log  factor   9.7297025E-04  1.0000000e-05  2.0100000e+01     hk      1.0000      0.0000   1
hk_235            log  factor   9.8580779E-04  1.0000000e-05  2.0100000e+01     hk      1.0000      0.0000   1
hk_236            log  factor   9.9037943E-04  1.0000000e-05  2.0100000e+01     hk      1.0000      0.0000   1
hk_237            log  factor   1.0128396E-03  1.0000000e-05  2.0100000e+01     hk      1.0000      0.0000   1
hk_238            log  factor   9.7134806E-04  1.0000000e-05  2.0100000e+01     hk      1.0000      0.0000   1
hk_239            log  factor   1.1264438E-03  1.0000000e-05  2.0100000e+01     hk      1.0000      0.0000   1
hk_240            log  factor   9.1171683E-04  1.0000000e-05  2.0100000e+01     hk      1.0000      0.0000   1
hk_241            log  factor   1.2000790E-03  1.0000000e-05  2.0100000e+01     hk      1.0000      0.0000   1
hk_242            log  factor   1.0417293E-03  1.0000000e-05  2.0100000e+01     hk      1.0000      0.0000   1
hk_243            log  factor   8.6255748E-04  1.0000000e-05  2.0100000e+01     hk      1.0000      0.0000   1
hk_244            log  factor   1.1262641E-03  1.0000000e-05  2.0100000e+01     hk      1.0000      0.0000   1
hk_245            log  factor   1.3119654E-03  1.0000000e-05  2.0100000e+01     hk      1.0000      0.0000   1
hk_246            log  factor   1.3141128E-03  1.0000000e-05  2.0100000e+01     hk      1.0000      0.0000   1
hk_247            log  factor   1.2989843E-03  1.0000000e-05  2.0100000e+01     hk      1.0000      0.0000   1
hk_248            log  factor   1.1252971E-03  1.0000000e-05  2.0100000e+01     hk      1.0000      0.0000   1
hk_249            log  factor   8.7895760E-04  1.0000000e-05  2.0100000e+01     hk      1.0000      0.0000   1
hk_250            log  factor   7.6832473E-04  1.0000000e-05  2.0100000e+01     hk      1.0000      0.0000   1
hk_251            log  factor   8.8522517E-04  1.0000000e-05  2.0100000e+01     hk      1.0000      0.0000   1
hk_252            log  factor   9.8661098E-04  1.0000000e-05  2.0100000e+01     hk      1.0000      0.0000   1
hk_253            log  factor   1.1135887E-03  1.0000000e-05  2.0100000e+01     hk      1.0000      0.0000   1
hk_254            log  factor   1.0302360E-03  1.0000000e-05  2.0100000e+01     hk      1.0000      0.0000   1
hk_255            log  factor   1.0365068E-03  1.0000000e-05  2.0100000e+01     hk      1.0000      0.0000   1
hk_256            log  factor   8.7644708E-04  1.0000000e-05  2.0100000e+01     hk      1.0000      0.0000   1
hk_257            log  factor   9.2415503E-04  1.0000000e-05  2.0100000e+01     hk      1.0000      0.0000   1
hk_258            log  factor   1.0039751E-03  1.0000000e-05  2.0100000e+01     hk      1.0000      0.0000   1
hk_259            log  factor   8.7882930E-04  1.0000000e-05  2.0100000e+01     hk      1.0000      0.0000   1
hk_260            log  factor   8.7891591E-04  1.0000000e-05  2.0100000e+01     hk      1.0000      0.0000   1
hk_261            log  factor   9.8783938E-04  1.0000000e-05  2.0100000e+01     hk      1.0000      0.0000   1