pcf
* control data
restart regularisation
   5586  14001      7    3146      6
    7     2 single point   1   0   0
  5.0  -3.0   0.3  0.03    10
  3.0   3.0 0.001  0
  0.1
    0  0.01     3     3  0.01     3
    1     1     1
* singular value decomposition
         1
      5586     1E-08
         0
* parameter groups
HK     relative 0.01  0.0  always_3  2.0 parabolic
ANIZ   relative 0.01  0.0  always_3  2.0 parabolic
HTR    relative 0.01  0.0  always_3  2.0 parabolic
HTS    relative 0.01  0.0  always_3  2.0 parabolic
ALFA   relative 0.01  0.0  always_3  2.0 parabolic
THET   relative 0.01  0.0  always_3  2.0 parabolic
BETA   relative 0.01  0.0  always_3  2.0 parabolic
* parameter data
hk_001          fixed  factor              999999  0.0000000E+00       99999999     HK      1.0000      0.0000   1
hk_002          fixed  factor              999999  0.0000000E+00       99999999     HK      1.0000      0.0000   1
hk_003          fixed  factor              999999  0.0000000E+00       99999999     HK      1.0000      0.0000   1
hk_004          fixed  factor              999999  0.0000000E+00       99999999     HK      1.0000      0.0000   1
hk_005          fixed  factor              999999  0.0000000E+00       99999999     HK      1.0000      0.0000   1
hk_006          fixed  factor              999999  0.0000000E+00       99999999     HK      1.0000      0.0000   1
hk_007          fixed  factor              999999  0.0000000E+00       99999999     HK      1.0000      0.0000   1
hk_008          fixed  factor              999999  0.0000000E+00       99999999     HK      1.0000      0.0000   1
hk_009          fixed  factor              999999  0.0000000E+00       99999999     HK      1.0000      0.0000   1
hk_010          fixed  factor              999999  0.0000000E+00       99999999     HK      1.0000      0.0000   1
hk_011          fixed  factor              999999  0.0000000E+00       99999999     HK      1.0000      0.0000   1
hk_012          fixed  factor              999999  0.0000000E+00       99999999     HK      1.0000      0.0000   1
hk_013          fixed  factor              999999  0.0000000E+00       99999999     HK      1.0000      0.0000   1
hk_014          fixed  factor              999999  0.0000000E+00       99999999     HK      1.0000      0.0000   1
hk_015          fixed  factor              999999  0.0000000E+00       99999999     HK      1.0000      0.0000   1
hk_016          fixed  factor              999999  0.0000000E+00       99999999     HK      1.0000      0.0000   1
hk_017          fixed  factor              999999  0.0000000E+00       99999999     HK      1.0000      0.0000   1
hk_018          fixed  factor              999999  0.0000000E+00       99999999     HK      1.0000      0.0000   1
hk_019          fixed  factor              999999  0.0000000E+00       99999999     HK      1.0000      0.0000   1
hk_020          fixed  factor              999999  0.0000000E+00       99999999     HK      1.0000      0.0000   1
hk_021          fixed  factor              999999  0.0000000E+00       99999999     HK      1.0000      0.0000   1
hk_022          fixed  factor              999999  0.0000000E+00       99999999     HK      1.0000      0.0000   1
hk_023          fixed  factor              999999  0.0000000E+00       99999999     HK      1.0000      0.0000   1
hk_024          fixed  factor              999999  0.0000000E+00       99999999     HK      1.0000      0.0000   1
hk_025          fixed  factor              999999  0.0000000E+00       99999999     HK      1.0000      0.0000   1
hk_026          fixed  factor              999999  0.0000000E+00       99999999     HK      1.0000      0.0000   1
hk_027          fixed  factor              999999  0.0000000E+00       99999999     HK      1.0000      0.0000   1
hk_028          fixed  factor              999999  0.0000000E+00       99999999     HK      1.0000      0.0000   1
hk_029          fixed  factor              999999  0.0000000E+00       99999999     HK      1.0000      0.0000   1
hk_030          fixed  factor              999999  0.0000000E+00       99999999     HK      1.0000      0.0000   1
hk_031          fixed  factor              999999  0.0000000E+00       99999999     HK      1.0000      0.0000   1
hk_032          fixed  factor              999999  0.0000000E+00       99999999     HK      1.0000      0.0000   1
hk_033          fixed  factor              999999  0.0000000E+00       99999999     HK      1.0000      0.0000   1
hk_034          fixed  factor              999999  0.0000000E+00       99999999     HK      1.0000      0.0000   1
hk_035          fixed  factor              999999  0.0000000E+00       99999999     HK      1.0000      0.0000   1
hk_036          fixed  factor              999999  0.0000000E+00       99999999     HK      1.0000      0.0000   1
hk_037          fixed  factor              999999  0.0000000E+00       99999999     HK      1.0000      0.0000   1
hk_038          fixed  factor              999999  0.0000000E+00       99999999     HK      1.0000      0.0000   1
hk_039          fixed  factor              999999  0.0000000E+00       99999999     HK      1.0000      0.0000   1
hk_040          fixed  factor              999999  0.0000000E+00       99999999     HK      1.0000      0.0000   1
hk_041          fixed  factor              999999  0.0000000E+00       99999999     HK      1.0000      0.0000   1
hk_042          fixed  factor              999999  0.0000000E+00       99999999     HK      1.0000      0.0000   1
hk_043          fixed  factor              999999  0.0000000E+00       99999999     HK      1.0000      0.0000   1
hk_044          fixed  factor              999999  0.0000000E+00       99999999     HK      1.0000      0.0000   1
hk_045          fixed  factor              999999  0.0000000E+00       99999999     HK      1.0000      0.0000   1
hk_046          fixed  factor              999999  0.0000000E+00       99999999     HK      1.0000      0.0000   1
hk_047          fixed  factor              999999  0.0000000E+00       99999999     HK      1.0000      0.0000   1
hk_048          fixed  factor              999999  0.0000000E+00       99999999     HK      1.0000      0.0000   1
hk_049          fixed  factor              999999  0.0000000E+00       99999999     HK      1.0000      0.0000   1
hk_050          fixed  factor              999999  0.0000000E+00       99999999     HK      1.0000      0.0000   1
hk_051          fixed  factor              999999  0.0000000E+00       99999999     HK      1.0000      0.0000   1
hk_052          fixed  factor              999999  0.0000000E+00       99999999     HK      1.0000      0.0000   1
hk_053          fixed  factor              999999  0.0000000E+00       99999999     HK      1.0000      0.0000   1
hk_054          fixed  factor              999999  0.0000000E+00       99999999     HK      1.0000      0.0000   1
hk_055          fixed  factor              999999  0.0000000E+00       99999999     HK      1.0000      0.0000   1
hk_056          fixed  factor              999999  0.0000000E+00       99999999     HK      1.0000      0.0000   1
hk_057          fixed  factor              999999  0.0000000E+00       99999999     HK      1.0000      0.0000   1
hk_058          fixed  factor              999999  0.0000000E+00       99999999     HK      1.0000      0.0000   1
hk_059          fixed  factor              999999  0.0000000E+00       99999999     HK      1.0000      0.0000   1
hk_060          fixed  factor              999999  0.0000000E+00       99999999     HK      1.0000      0.0000   1
hk_061          fixed  factor              999999  0.0000000E+00       99999999     HK      1.0000      0.0000   1
hk_062          fixed  factor             6.49623  1.0000000E-05  1.0000000E+01     HK      1.0000      0.0000   1
hk_063          fixed  factor             6.49623  1.0000000E-05  1.0000000E+01     HK      1.0000      0.0000   1
hk_064          fixed  factor              999999  0.0000000E+00       99999999     HK      1.0000      0.0000   1
hk_065          fixed  factor              999999  0.0000000E+00       99999999     HK      1.0000      0.0000   1
hk_066          fixed  factor              999999  0.0000000E+00       99999999     HK      1.0000      0.0000   1
hk_067          fixed  factor              999999  0.0000000E+00       99999999     HK      1.0000      0.0000   1
hk_068          fixed  factor              999999  0.0000000E+00       99999999     HK      1.0000      0.0000   1
hk_069          fixed  factor              999999  0.0000000E+00       99999999     HK      1.0000      0.0000   1
hk_070          fixed  factor              999999  0.0000000E+00       99999999     HK      1.0000      0.0000   1
hk_071          fixed  factor              999999  0.0000000E+00       99999999     HK      1.0000      0.0000   1
hk_072          fixed  factor              999999  0.0000000E+00       99999999     HK      1.0000      0.0000   1
hk_073          fixed  factor              999999  0.0000000E+00       99999999     HK      1.0000      0.0000   1
hk_074          fixed  factor              999999  0.0000000E+00       99999999     HK      1.0000      0.0000   1
hk_075          fixed  factor              999999  0.0000000E+00       99999999     HK      1.0000      0.0000   1
hk_076          fixed  factor              999999  0.0000000E+00       99999999     HK      1.0000      0.0000   1
hk_077          fixed  factor              999999  0.0000000E+00       99999999     HK      1.0000      0.0000   1
hk_078          fixed  factor              999999  0.0000000E+00       99999999     HK      1.0000      0.0000   1
hk_079          fixed  factor              999999  0.0000000E+00       99999999     HK      1.0000      0.0000   1
hk_080          fixed  factor              999999  0.0000000E+00       99999999     HK      1.0000      0.0000   1
hk_081          fixed  factor              999999  0.0000000E+00       99999999     HK      1.0000      0.0000   1
hk_082          fixed  factor              999999  0.0000000E+00       99999999     HK      1.0000      0.0000   1
hk_083          fixed  factor             6.49623  1.0000000E-05  1.0000000E+01     HK      1.0000      0.0000   1
hk_084          fixed  factor             6.49623  1.0000000E-05  1.0000000E+01     HK      1.0000      0.0000   1
hk_085          fixed  factor              999999  0.0000000E+00       99999999     HK      1.0000      0.0000   1
hk_086          fixed  factor              999999  0.0000000E+00       99999999     HK      1.0000      0.0000   1
hk_087          fixed  factor              999999  0.0000000E+00       99999999     HK      1.0000      0.0000   1
hk_088          fixed  factor              999999  0.0000000E+00       99999999     HK      1.0000      0.0000   1
hk_089          fixed  factor              999999  0.0000000E+00       99999999     HK      1.0000      0.0000   1
hk_090          fixed  factor              999999  0.0000000E+00       99999999     HK      1.0000      0.0000   1
hk_091          fixed  factor              999999  0.0000000E+00       99999999     HK      1.0000      0.0000   1
hk_092          fixed  factor              999999  0.0000000E+00       99999999     HK      1.0000      0.0000   1
hk_093          fixed  factor              999999  0.0000000E+00       99999999     HK      1.0000      0.0000   1
hk_094          fixed  factor              999999  0.0000000E+00       99999999     HK      1.0000      0.0000   1
hk_095          fixed  factor              999999  0.0000000E+00       99999999     HK      1.0000      0.0000   1
hk_096          fixed  factor              999999  0.0000000E+00       99999999     HK      1.0000      0.0000   1
hk_097          fixed  factor              999999  0.0000000E+00       99999999     HK      1.0000      0.0000   1
hk_098          fixed  factor              999999  0.0000000E+00       99999999     HK      1.0000      0.0000   1
hk_099          fixed  factor              999999  0.0000000E+00       99999999     HK      1.0000      0.0000   1
hk_100          fixed  factor              999999  0.0000000E+00       99999999     HK      1.0000      0.0000   1
hk_101          fixed  factor              999999  0.0000000E+00       99999999     HK      1.0000      0.0000   1
hk_102          fixed  factor              999999  0.0000000E+00       99999999     HK      1.0000      0.0000   1
hk_103          fixed  factor             6.49623  1.0000000E-05  1.0000000E+01     HK      1.0000      0.0000   1
hk_104          fixed  factor             6.49623  1.0000000E-05  1.0000000E+01     HK      1.0000      0.0000   1
hk_105          fixed  factor             6.49623  1.0000000E-05  1.0000000E+01     HK      1.0000      0.0000   1
hk_106          fixed  factor              999999  0.0000000E+00       99999999     HK      1.0000      0.0000   1
hk_107          fixed  factor              999999  0.0000000E+00       99999999     HK      1.0000      0.0000   1
hk_108          fixed  factor              999999  0.0000000E+00       99999999     HK      1.0000      0.0000   1
hk_109          fixed  factor              999999  0.0000000E+00       99999999     HK      1.0000      0.0000   1
hk_110          fixed  factor              999999  0.0000000E+00       99999999     HK      1.0000      0.0000   1
hk_111          fixed  factor              999999  0.0000000E+00       99999999     HK      1.0000      0.0000   1
hk_112          fixed  factor              999999  0.0000000E+00       99999999     HK      1.0000      0.0000   1
hk_113          fixed  factor              999999  0.0000000E+00       99999999     HK      1.0000      0.0000   1
hk_114          fixed  factor              999999  0.0000000E+00       99999999     HK      1.0000      0.0000   1
hk_115          fixed  factor              999999  0.0000000E+00       99999999     HK      1.0000      0.0000   1
hk_116          fixed  factor              999999  0.0000000E+00       99999999     HK      1.0000      0.0000   1
hk_117          fixed  factor              999999  0.0000000E+00       99999999     HK      1.0000      0.0000   1
hk_118          fixed  factor              999999  0.0000000E+00       99999999     HK      1.0000      0.0000   1
hk_119          fixed  factor              999999  0.0000000E+00       99999999     HK      1.0000      0.0000   1
hk_120          fixed  factor              999999  0.0000000E+00       99999999     HK      1.0000      0.0000   1
hk_121          fixed  factor              999999  0.0000000E+00       99999999     HK      1.0000      0.0000   1
hk_122          fixed  factor              999999  0.0000000E+00       99999999     HK      1.0000      0.0000   1
hk_123          fixed  factor              999999  0.0000000E+00       99999999     HK      1.0000      0.0000   1
hk_124          fixed  factor             6.49623  1.0000000E-05  1.0000000E+01     HK      1.0000      0.0000   1
hk_125          fixed  factor             6.49623  1.0000000E-05  1.0000000E+01     HK      1.0000      0.0000   1
hk_126          fixed  factor             6.49623  1.0000000E-05  1.0000000E+01     HK      1.0000      0.0000   1
hk_127          fixed  factor              999999  0.0000000E+00       99999999     HK      1.0000      0.0000   1
hk_128          fixed  factor              999999  0.0000000E+00       99999999     HK      1.0000      0.0000   1
hk_129          fixed  factor              999999  0.0000000E+00       99999999     HK      1.0000      0.0000   1
hk_130          fixed  factor              999999  0.0000000E+00       99999999     HK      1.0000      0.0000   1
hk_131          fixed  factor              999999  0.0000000E+00       99999999     HK      1.0000      0.0000   1
hk_132          fixed  factor              999999  0.0000000E+00       99999999     HK      1.0000      0.0000   1
hk_133          fixed  factor              999999  0.0000000E+00       99999999     HK      1.0000      0.0000   1
hk_134          fixed  factor              999999  0.0000000E+00       99999999     HK      1.0000      0.0000   1
hk_135          fixed  factor              999999  0.0000000E+00       99999999     HK      1.0000      0.0000   1
hk_136          fixed  factor              999999  0.0000000E+00       99999999     HK      1.0000      0.0000   1
hk_137          fixed  factor              999999  0.0000000E+00       99999999     HK      1.0000      0.0000   1
hk_138          fixed  factor              999999  0.0000000E+00       99999999     HK      1.0000      0.0000   1
hk_139          fixed  factor              999999  0.0000000E+00       99999999     HK      1.0000      0.0000   1
hk_140          fixed  factor              999999  0.0000000E+00       99999999     HK      1.0000      0.0000   1
hk_141          fixed  factor              999999  0.0000000E+00       99999999     HK      1.0000      0.0000   1
hk_142          fixed  factor              999999  0.0000000E+00       99999999     HK      1.0000      0.0000   1
hk_143          fixed  factor              999999  0.0000000E+00       99999999     HK      1.0000      0.0000   1
hk_144          fixed  factor              999999  0.0000000E+00       99999999     HK      1.0000      0.0000   1
hk_145          fixed  factor             6.49623  1.0000000E-05  1.0000000E+01     HK      1.0000      0.0000   1
hk_146          fixed  factor             6.49623  1.0000000E-05  1.0000000E+01     HK      1.0000      0.0000   1
hk_147          fixed  factor             6.49623  1.0000000E-05  1.0000000E+01     HK      1.0000      0.0000   1
hk_148          fixed  factor             6.49623  1.0000000E-05  1.0000000E+01     HK      1.0000      0.0000   1
hk_149          fixed  factor              999999  0.0000000E+00       99999999     HK      1.0000      0.0000   1
hk_150          fixed  factor              999999  0.0000000E+00       99999999     HK      1.0000      0.0000   1
hk_151          fixed  factor              999999  0.0000000E+00       99999999     HK      1.0000      0.0000   1
hk_152          fixed  factor              999999  0.0000000E+00       99999999     HK      1.0000      0.0000   1
hk_153          fixed  factor              999999  0.0000000E+00       99999999     HK      1.0000      0.0000   1
hk_154          fixed  factor              999999  0.0000000E+00       99999999     HK      1.0000      0.0000   1
hk_155          fixed  factor              999999  0.0000000E+00       99999999     HK      1.0000      0.0000   1
hk_156          fixed  factor              999999  0.0000000E+00       99999999     HK      1.0000      0.0000   1
hk_157          fixed  factor              999999  0.0000000E+00       99999999     HK      1.0000      0.0000   1
hk_158          fixed  factor              999999  0.0000000E+00       99999999     HK      1.0000      0.0000   1
hk_159          fixed  factor              999999  0.0000000E+00       99999999     HK      1.0000      0.0000   1
hk_160          fixed  factor              999999  0.0000000E+00       99999999     HK      1.0000      0.0000   1
hk_161          fixed  factor              999999  0.0000000E+00       99999999     HK      1.0000      0.0000   1
hk_162          fixed  factor              999999  0.0000000E+00       99999999     HK      1.0000      0.0000   1
hk_163          fixed  factor              999999  0.0000000E+00       99999999     HK      1.0000      0.0000   1
hk_164          fixed  factor              999999  0.0000000E+00       99999999     HK      1.0000      0.0000   1
hk_165          fixed  factor             6.49623  1.0000000E-05  1.0000000E+01     HK      1.0000      0.0000   1
hk_166          fixed  factor             6.49623  1.0000000E-05  1.0000000E+01     HK      1.0000      0.0000   1
hk_167          fixed  factor             6.49623  1.0000000E-05  1.0000000E+01     HK      1.0000      0.0000   1
hk_168          fixed  factor             6.49623  1.0000000E-05  1.0000000E+01     HK      1.0000      0.0000   1
hk_169          fixed  factor             6.49623  1.0000000E-05  1.0000000E+01     HK      1.0000      0.0000   1
hk_170          fixed  factor              999999  0.0000000E+00       99999999     HK      1.0000      0.0000   1
hk_171          fixed  factor              999999  0.0000000E+00       99999999     HK      1.0000      0.0000   1
hk_172          fixed  factor              999999  0.0000000E+00       99999999     HK      1.0000      0.0000   1
hk_173          fixed  factor              999999  0.0000000E+00       99999999     HK      1.0000      0.0000   1
hk_174          fixed  factor              999999  0.0000000E+00       99999999     HK      1.0000      0.0000   1
hk_175          fixed  factor              999999  0.0000000E+00       99999999     HK      1.0000      0.0000   1
hk_176          fixed  factor              999999  0.0000000E+00       99999999     HK      1.0000      0.0000   1
hk_177          fixed  factor              999999  0.0000000E+00       99999999     HK      1.0000      0.0000   1
hk_178          fixed  factor              999999  0.0000000E+00       99999999     HK      1.0000      0.0000   1
hk_179          fixed  factor              999999  0.0000000E+00       99999999     HK      1.0000      0.0000   1
hk_180          fixed  factor              999999  0.0000000E+00       99999999     HK      1.0000      0.0000   1
hk_181          fixed  factor              999999  0.0000000E+00       99999999     HK      1.0000      0.0000   1
hk_182          fixed  factor              999999  0.0000000E+00       99999999     HK      1.0000      0.0000   1
hk_183          fixed  factor              999999  0.0000000E+00       99999999     HK      1.0000      0.0000   1
hk_184          fixed  factor              999999  0.0000000E+00       99999999     HK      1.0000      0.0000   1
hk_185          fixed  factor              999999  0.0000000E+00       99999999     HK      1.0000      0.0000   1
hk_186          fixed  factor             6.49623  1.0000000E-05  1.0000000E+01     HK      1.0000      0.0000   1
hk_187          fixed  factor             6.49623  1.0000000E-05  1.0000000E+01     HK      1.0000      0.0000   1
hk_188          fixed  factor             6.49623  1.0000000E-05  1.0000000E+01     HK      1.0000      0.0000   1
hk_189          fixed  factor             6.49623  1.0000000E-05  1.0000000E+01     HK      1.0000      0.0000   1
hk_190          fixed  factor             6.49623  1.0000000E-05  1.0000000E+01     HK      1.0000      0.0000   1
hk_191          fixed  factor             6.49623  1.0000000E-05  1.0000000E+01     HK      1.0000      0.0000   1
hk_192          fixed  factor             6.49623  1.0000000E-05  1.0000000E+01     HK      1.0000      0.0000   1
hk_193          fixed  factor              999999  0.0000000E+00       99999999     HK      1.0000      0.0000   1
hk_194          fixed  factor              999999  0.0000000E+00       99999999     HK      1.0000      0.0000   1
hk_195          fixed  factor              999999  0.0000000E+00       99999999     HK      1.0000      0.0000   1
hk_196          fixed  factor              999999  0.0000000E+00       99999999     HK      1.0000      0.0000   1
hk_197          fixed  factor              999999  0.0000000E+00       99999999     HK      1.0000      0.0000   1
hk_198          fixed  factor              999999  0.0000000E+00       99999999     HK      1.0000      0.0000   1
hk_199          fixed  factor              999999  0.0000000E+00       99999999     HK      1.0000      0.0000   1
hk_200          fixed  factor              999999  0.0000000E+00       99999999     HK      1.0000      0.0000   1
hk_201          fixed  factor              999999  0.0000000E+00       99999999     HK      1.0000      0.0000   1
hk_202          fixed  factor              999999  0.0000000E+00       99999999     HK      1.0000      0.0000   1
hk_203          fixed  factor              999999  0.0000000E+00       99999999     HK      1.0000      0.0000   1
hk_204          fixed  factor              999999  0.0000000E+00       99999999     HK      1.0000      0.0000   1
hk_205          fixed  factor              999999  0.0000000E+00       99999999     HK      1.0000      0.0000   1
hk_206          fixed  factor        1.187200E-02  1.0000000E-05  1.0000000E+01     HK      1.0000      0.0000   1
hk_207          fixed  factor             6.49623  1.0000000E-05  1.0000000E+01     HK      1.0000      0.0000   1
hk_208          fixed  factor             6.49623  1.0000000E-05  1.0000000E+01     HK      1.0000      0.0000   1
hk_209          fixed  factor             6.49623  1.0000000E-05  1.0000000E+01     HK      1.0000      0.0000   1
hk_210          fixed  factor             6.49623  1.0000000E-05  1.0000000E+01     HK      1.0000      0.0000   1
hk_211          fixed  factor             6.49623  1.0000000E-05  1.0000000E+01     HK      1.0000      0.0000   1
hk_212          fixed  factor             6.49623  1.0000000E-05  1.0000000E+01     HK      1.0000      0.0000   1
hk_213          fixed  factor             6.49623  1.0000000E-05  1.0000000E+01     HK      1.0000      0.0000   1
hk_214          fixed  factor        3.593000E-03  1.0000000E-05  1.0000000E+01     HK      1.0000      0.0000   1
hk_215          fixed  factor              999999  0.0000000E+00       99999999     HK      1.0000      0.0000   1
hk_216          fixed  factor              999999  0.0000000E+00       99999999     HK      1.0000      0.0000   1
hk_217          fixed  factor              999999  0.0000000E+00       99999999     HK      1.0000      0.0000   1
hk_218          fixed  factor              999999  0.0000000E+00       99999999     HK      1.0000      0.0000   1
hk_219          fixed  factor              999999  0.0000000E+00       99999999     HK      1.0000      0.0000   1
hk_220          fixed  factor              999999  0.0000000E+00       99999999     HK      1.0000      0.0000   1
hk_221          fixed  factor              999999  0.0000000E+00       99999999     HK      1.0000      0.0000   1
hk_222          fixed  factor              999999  0.0000000E+00       99999999     HK      1.0000      0.0000   1
hk_223          fixed  factor              999999  0.0000000E+00       99999999     HK      1.0000      0.0000   1
hk_224          fixed  factor              999999  0.0000000E+00       99999999     HK      1.0000      0.0000   1
hk_225          fixed  factor              999999  0.0000000E+00       99999999     HK      1.0000      0.0000   1
hk_226          fixed  factor              999999  0.0000000E+00       99999999     HK      1.0000      0.0000   1
hk_227          fixed  factor        1.187200E-02  1.0000000E-05  1.0000000E+01     HK      1.0000      0.0000   1
hk_228          fixed  factor             6.49623  1.0000000E-05  1.0000000E+01     HK      1.0000      0.0000   1
hk_229          fixed  factor             6.49623  1.0000000E-05  1.0000000E+01     HK      1.0000      0.0000   1
hk_230          fixed  factor             6.49623  1.0000000E-05  1.0000000E+01     HK      1.0000      0.0000   1
hk_231          fixed  factor             6.49623  1.0000000E-05  1.0000000E+01     HK      1.0000      0.0000   1
hk_232          fixed  factor             6.49623  1.0000000E-05  1.0000000E+01     HK      1.0000      0.0000   1
hk_233          fixed  factor             6.49623  1.0000000E-05  1.0000000E+01     HK      1.0000      0.0000   1
hk_234          fixed  factor             6.49623  1.0000000E-05  1.0000000E+01     HK      1.0000      0.0000   1
hk_235          fixed  factor        3.593000E-03  1.0000000E-05  1.0000000E+01     HK      1.0000      0.0000   1
hk_236          fixed  factor              999999  0.0000000E+00       99999999     HK      1.0000      0.0000   1
hk_237          fixed  factor              999999  0.0000000E+00       99999999     HK      1.0000      0.0000   1
hk_238          fixed  factor              999999  0.0000000E+00       99999999     HK      1.0000      0.0000   1
hk_239          fixed  factor              999999  0.0000000E+00       99999999     HK      1.0000      0.0000   1
hk_240          fixed  factor              999999  0.0000000E+00       99999999     HK      1.0000      0.0000   1
hk_241          fixed  factor              999999  0.0000000E+00       99999999     HK      1.0000      0.0000   1
hk_242          fixed  factor              999999  0.0000000E+00       99999999     HK      1.0000      0.0000   1
hk_243          fixed  factor              999999  0.0000000E+00       99999999     HK      1.0000      0.0000   1
hk_244          fixed  factor              999999  0.0000000E+00       99999999     HK      1.0000      0.0000   1
hk_245          fixed  factor              999999  0.0000000E+00       99999999     HK      1.0000      0.0000   1
hk_246          fixed  factor              999999  0.0000000E+00       99999999     HK      1.0000      0.0000   1
hk_247          fixed  factor        1.187200E-02  1.0000000E-05  1.0000000E+01     HK      1.0000      0.0000   1
hk_248          fixed  factor             6.49623  1.0000000E-05  1.0000000E+01     HK      1.0000      0.0000   1
hk_249          fixed  factor             6.49623  1.0000000E-05  1.0000000E+01     HK      1.0000      0.0000   1
hk_250          fixed  factor             6.49623  1.0000000E-05  1.0000000E+01     HK      1.0000      0.0000   1
hk_251          fixed  factor             6.49623  1.0000000E-05  1.0000000E+01     HK      1.0000      0.0000   1
hk_252          fixed  factor             6.49623  1.0000000E-05  1.0000000E+01     HK      1.0000      0.0000   1