pcf
* control data
restart regularisation
   1188  14757      6    1965     12
    6     2 single point   1   0   0
  5.0  -3.0   0.3  0.03    10
  3.0   3.0 0.001  0
  0.1
    0  0.01     3     3  0.01     3
    1     1     1
* singular value decomposition
         1
      1100     1E-07
         0
* parameter groups
HK     relative 0.01  0.0  switch  2.0 parabolic
ANIZ   relative 0.01  0.0  switch  2.0 parabolic
HTR    relative 0.01  0.0  switch  2.0 parabolic
HTS    relative 0.01  0.0  switch  2.0 parabolic
ALFA   relative 0.01  0.0  switch  2.0 parabolic
THET   relative 0.01  0.0  switch  2.0 parabolic
* parameter data
hk_001          fixed  factor    999999.0      0.0000000e+00       99999999     hk      1.0000      0.0000   1
hk_002          fixed  factor    999999.0      0.0000000e+00       99999999     hk      1.0000      0.0000   1
hk_003          fixed  factor    999999.0      0.0000000e+00       99999999     hk      1.0000      0.0000   1
hk_004          fixed  factor    999999.0      0.0000000e+00       99999999     hk      1.0000      0.0000   1
hk_005          fixed  factor    999999.0      0.0000000e+00       99999999     hk      1.0000      0.0000   1
hk_006          fixed  factor    999999.0      0.0000000e+00       99999999     hk      1.0000      0.0000   1
hk_007          fixed  factor    999999.0      0.0000000e+00       99999999     hk      1.0000      0.0000   1
hk_008          fixed  factor    999999.0      0.0000000e+00       99999999     hk      1.0000      0.0000   1
hk_009          fixed  factor    999999.0      0.0000000e+00       99999999     hk      1.0000      0.0000   1
hk_010          fixed  factor    999999.0      0.0000000e+00       99999999     hk      1.0000      0.0000   1
hk_011          fixed  factor    999999.0      0.0000000e+00       99999999     hk      1.0000      0.0000   1
hk_012          fixed  factor    999999.0      0.0000000e+00       99999999     hk      1.0000      0.0000   1
hk_013          fixed  factor    999999.0      0.0000000e+00       99999999     hk      1.0000      0.0000   1
hk_014          fixed  factor    999999.0      0.0000000e+00       99999999     hk      1.0000      0.0000   1
hk_015          fixed  factor    999999.0      0.0000000e+00       99999999     hk      1.0000      0.0000   1
hk_016          fixed  factor    999999.0      0.0000000e+00       99999999     hk      1.0000      0.0000   1
hk_017          fixed  factor    999999.0      0.0000000e+00       99999999     hk      1.0000      0.0000   1
hk_018          fixed  factor    999999.0      0.0000000e+00       99999999     hk      1.0000      0.0000   1
hk_019          fixed  factor    999999.0      0.0000000e+00       99999999     hk      1.0000      0.0000   1
hk_020          fixed  factor    999999.0      0.0000000e+00       99999999     hk      1.0000      0.0000   1
hk_021          fixed  factor    999999.0      0.0000000e+00       99999999     hk      1.0000      0.0000   1
hk_022          fixed  factor    999999.0      0.0000000e+00       99999999     hk      1.0000      0.0000   1
hk_023          fixed  factor    999999.0      0.0000000e+00       99999999     hk      1.0000      0.0000   1
hk_024          fixed  factor    999999.0      0.0000000e+00       99999999     hk      1.0000      0.0000   1
hk_025          fixed  factor    999999.0      0.0000000e+00       99999999     hk      1.0000      0.0000   1
hk_026          fixed  factor    999999.0      0.0000000e+00       99999999     hk      1.0000      0.0000   1
hk_027          fixed  factor    999999.0      0.0000000e+00       99999999     hk      1.0000      0.0000   1
hk_028            log  factor   6.3611437E-04  1.0000000e-05  1.0000000e+01     hk      1.0000      0.0000   1
hk_029          fixed  factor    999999.0      0.0000000e+00       99999999     hk      1.0000      0.0000   1
hk_030          fixed  factor    999999.0      0.0000000e+00       99999999     hk      1.0000      0.0000   1
hk_031          fixed  factor    999999.0      0.0000000e+00       99999999     hk      1.0000      0.0000   1
hk_032          fixed  factor    999999.0      0.0000000e+00       99999999     hk      1.0000      0.0000   1
hk_033          fixed  factor    999999.0      0.0000000e+00       99999999     hk      1.0000      0.0000   1
hk_034          fixed  factor    999999.0      0.0000000e+00       99999999     hk      1.0000      0.0000   1
hk_035          fixed  factor    999999.0      0.0000000e+00       99999999     hk      1.0000      0.0000   1
hk_036            log  factor   0.4336057      1.0000000e-05  1.0000000e+01     hk      1.0000      0.0000   1
hk_037            log  factor   1.0435260E-03  1.0000000e-05  1.0000000e+01     hk      1.0000      0.0000   1
hk_038            log  factor   1.1954575E-03  1.0000000e-05  1.0000000e+01     hk      1.0000      0.0000   1
hk_039          fixed  factor    999999.0      0.0000000e+00       99999999     hk      1.0000      0.0000   1
hk_040          fixed  factor    999999.0      0.0000000e+00       99999999     hk      1.0000      0.0000   1
hk_041          fixed  factor    999999.0      0.0000000e+00       99999999     hk      1.0000      0.0000   1
hk_042          fixed  factor    999999.0      0.0000000e+00       99999999     hk      1.0000      0.0000   1
hk_043          fixed  factor    999999.0      0.0000000e+00       99999999     hk      1.0000      0.0000   1
hk_044          fixed  factor    999999.0      0.0000000e+00       99999999     hk      1.0000      0.0000   1
hk_045            log  factor   0.5932204      1.0000000e-05  1.0000000e+01     hk      1.0000      0.0000   1
hk_046            log  factor   2.7398431E-04  1.0000000e-05  1.0000000e+01     hk      1.0000      0.0000   1
hk_047            log  factor   2.3442623E-03  1.0000000e-05  1.0000000e+01     hk      1.0000      0.0000   1
hk_048          fixed  factor    999999.0      0.0000000e+00       99999999     hk      1.0000      0.0000   1
hk_049          fixed  factor    999999.0      0.0000000e+00       99999999     hk      1.0000      0.0000   1
hk_050          fixed  factor    999999.0      0.0000000e+00       99999999     hk      1.0000      0.0000   1
hk_051          fixed  factor    999999.0      0.0000000e+00       99999999     hk      1.0000      0.0000   1
hk_052          fixed  factor    999999.0      0.0000000e+00       99999999     hk      1.0000      0.0000   1
hk_053          fixed  factor    999999.0      0.0000000e+00       99999999     hk      1.0000      0.0000   1
hk_054            log  factor   0.3682998      1.0000000e-05  1.0000000e+01     hk      1.0000      0.0000   1
hk_055            log  factor   6.0298786E-04  1.0000000e-05  1.0000000e+01     hk      1.0000      0.0000   1
hk_056            log  factor   2.0282560E-03  1.0000000e-05  1.0000000e+01     hk      1.0000      0.0000   1
hk_057          fixed  factor    999999.0      0.0000000e+00       99999999     hk      1.0000      0.0000   1
hk_058          fixed  factor    999999.0      0.0000000e+00       99999999     hk      1.0000      0.0000   1
hk_059          fixed  factor    999999.0      0.0000000e+00       99999999     hk      1.0000      0.0000   1
hk_060          fixed  factor    999999.0      0.0000000e+00       99999999     hk      1.0000      0.0000   1
hk_061          fixed  factor    999999.0      0.0000000e+00       99999999     hk      1.0000      0.0000   1
hk_062          fixed  factor    999999.0      0.0000000e+00       99999999     hk      1.0000      0.0000   1
hk_063            log  factor   0.4098568      1.0000000e-05  1.0000000e+01     hk      1.0000      0.0000   1
hk_064            log  factor   1.3788755E-03  1.0000000e-05  1.0000000e+01     hk      1.0000      0.0000   1
hk_065            log  factor   4.4094530E-03  1.0000000e-05  1.0000000e+01     hk      1.0000      0.0000   1
hk_066            log  factor    1.525130      1.0000000e-05  1.0000000e+01     hk      1.0000      0.0000   1
hk_067          fixed  factor    999999.0      0.0000000e+00       99999999     hk      1.0000      0.0000   1
hk_068          fixed  factor    999999.0      0.0000000e+00       99999999     hk      1.0000      0.0000   1
hk_069          fixed  factor    999999.0      0.0000000e+00       99999999     hk      1.0000      0.0000   1
hk_070          fixed  factor    999999.0      0.0000000e+00       99999999     hk      1.0000      0.0000   1
hk_071            log  factor   0.1922944      1.0000000e-05  1.0000000e+01     hk      1.0000      0.0000   1
hk_072            log  factor   0.2569264      1.0000000e-05  1.0000000e+01     hk      1.0000      0.0000   1
hk_073            log  factor   2.6251957E-04  1.0000000e-05  1.0000000e+01     hk      1.0000      0.0000   1
hk_074            log  factor   2.3822904E-02  1.0000000e-05  1.0000000e+01     hk      1.0000      0.0000   1
hk_075            log  factor   5.4692917E-02  1.0000000e-05  1.0000000e+01     hk      1.0000      0.0000   1
hk_076            log  factor   0.1850342      1.0000000e-05  1.0000000e+01     hk      1.0000      0.0000   1
hk_077            log  factor   0.2091852      1.0000000e-05  1.0000000e+01     hk      1.0000      0.0000   1
hk_078            log  factor    5.694094      1.0000000e-05  1.0000000e+01     hk      1.0000      0.0000   1
hk_079            log  factor   0.1265317      1.0000000e-05  1.0000000e+01     hk      1.0000      0.0000   1
hk_080            log  factor   8.8640221E-02  1.0000000e-05  1.0000000e+01     hk      1.0000      0.0000   1
hk_081            log  factor   1.4880123E-02  1.0000000e-05  1.0000000e+01     hk      1.0000      0.0000   1
hk_082            log  factor   1.1749545E-03  1.0000000e-05  1.0000000e+01     hk      1.0000      0.0000   1
hk_083            log  factor   1.1256049E-02  1.0000000e-05  1.0000000e+01     hk      1.0000      0.0000   1
hk_084            log  factor   4.0212664E-03  1.0000000e-05  1.0000000e+01     hk      1.0000      0.0000   1
hk_085            log  factor   0.2518577      1.0000000e-05  1.0000000e+01     hk      1.0000      0.0000   1
hk_086            log  factor   0.3587586      1.0000000e-05  1.0000000e+01     hk      1.0000      0.0000   1
hk_087            log  factor    9.830768      1.0000000e-05  1.0000000e+01     hk      1.0000      0.0000   1
hk_088            log  factor   0.9439476      1.0000000e-05  1.0000000e+01     hk      1.0000      0.0000   1
hk_089            log  factor   0.1298659      1.0000000e-05  1.0000000e+01     hk      1.0000      0.0000   1
hk_090            log  factor   1.8105324E-02  1.0000000e-05  1.0000000e+01     hk      1.0000      0.0000   1
hk_091            log  factor   5.0840987E-04  1.0000000e-05  1.0000000e+01     hk      1.0000      0.0000   1
hk_092            log  factor   3.6586302E-03  1.0000000e-05  1.0000000e+01     hk      1.0000      0.0000   1
hk_093            log  factor   1.2088826E-03  1.0000000e-05  1.0000000e+01     hk      1.0000      0.0000   1
hk_094            log  factor   1.1404601E-02  1.0000000e-05  1.0000000e+01     hk      1.0000      0.0000   1
hk_095            log  factor   2.8456672E-02  1.0000000e-05  1.0000000e+01     hk      1.0000      0.0000   1
hk_096            log  factor   0.1189156      1.0000000e-05  1.0000000e+01     hk      1.0000      0.0000   1
hk_097            log  factor   0.4484010      1.0000000e-05  1.0000000e+01     hk      1.0000      0.0000   1
hk_098            log  factor   1.4718148E-02  1.0000000e-05  1.0000000e+01     hk      1.0000      0.0000   1
hk_099            log  factor   9.1695670E-03  1.0000000e-05  1.0000000e+01     hk      1.0000      0.0000   1
hk_100            log  factor   5.9071326E-04  1.0000000e-05  1.0000000e+01     hk      1.0000      0.0000   1
hk_101            log  factor   1.5879733E-02  1.0000000e-05  1.0000000e+01     hk      1.0000      0.0000   1
hk_102            log  factor   7.5293748E-04  1.0000000e-05  1.0000000e+01     hk      1.0000      0.0000   1
hk_103            log  factor   6.8664690E-03  1.0000000e-05  1.0000000e+01     hk      1.0000      0.0000   1
hk_104            log  factor   5.1195045E-03  1.0000000e-05  1.0000000e+01     hk      1.0000      0.0000   1
hk_105            log  factor   1.2060432E-02  1.0000000e-05  1.0000000e+01     hk      1.0000      0.0000   1
hk_106            log  factor   8.6550015E-02  1.0000000e-05  1.0000000e+01     hk      1.0000      0.0000   1
hk_107            log  factor   9.0077289E-03  1.0000000e-05  1.0000000e+01     hk      1.0000      0.0000   1
hk_108            log  factor   6.5785850E-03  1.0000000e-05  1.0000000e+01     hk      1.0000      0.0000   1
hk_109            log  factor   9.1947148E-04  1.0000000e-05  1.0000000e+01     hk      1.0000      0.0000   1
hk_110            log  factor   1.3775315E-02  1.0000000e-05  1.0000000e+01     hk      1.0000      0.0000   1
hk_111            log  factor   2.4838188E-03  1.0000000e-05  1.0000000e+01     hk      1.0000      0.0000   1
hk_112            log  factor   5.3798332E-03  1.0000000e-05  1.0000000e+01     hk      1.0000      0.0000   1
hk_113            log  factor   2.7755106E-03  1.0000000e-05  1.0000000e+01     hk      1.0000      0.0000   1
hk_114            log  factor   2.8245832E-03  1.0000000e-05  1.0000000e+01     hk      1.0000      0.0000   1
hk_115            log  factor   5.2295661E-02  1.0000000e-05  1.0000000e+01     hk      1.0000      0.0000   1
hk_116            log  factor   8.6147090E-03  1.0000000e-05  1.0000000e+01     hk      1.0000      0.0000   1
hk_117            log  factor   6.7270283E-03  1.0000000e-05  1.0000000e+01     hk      1.0000      0.0000   1
hk_118            log  factor   7.9929779E-03  1.0000000e-05  1.0000000e+01     hk      1.0000      0.0000   1
hk_119            log  factor   3.2065800E-02  1.0000000e-05  1.0000000e+01     hk      1.0000      0.0000   1
hk_120            log  factor   1.4773354E-03  1.0000000e-05  1.0000000e+01     hk      1.0000      0.0000   1
hk_121            log  factor   5.6997790E-03  1.0000000e-05  1.0000000e+01     hk      1.0000      0.0000   1
hk_122            log  factor   1.7457950E-03  1.0000000e-05  1.0000000e+01     hk      1.0000      0.0000   1
hk_123            log  factor   3.2759431E-03  1.0000000e-05  1.0000000e+01     hk      1.0000      0.0000   1
hk_124            log  factor   3.8208588E-02  1.0000000e-05  1.0000000e+01     hk      1.0000      0.0000   1
hk_125            log  factor   7.8913960E-03  1.0000000e-05  1.0000000e+01     hk      1.0000      0.0000   1
hk_126            log  factor   6.1731067E-03  1.0000000e-05  1.0000000e+01     hk      1.0000      0.0000   1
hk_127            log  factor   1.2786074E-02  1.0000000e-05  1.0000000e+01     hk      1.0000      0.0000   1
hk_128            log  factor   1.1526504E-02  1.0000000e-05  1.0000000e+01     hk      1.0000      0.0000   1
hk_129            log  factor   8.0031246E-03  1.0000000e-05  1.0000000e+01     hk      1.0000      0.0000   1
hk_130            log  factor   2.7701567E-03  1.0000000e-05  1.0000000e+01     hk      1.0000      0.0000   1
hk_131            log  factor   7.8632597E-04  1.0000000e-05  1.0000000e+01     hk      1.0000      0.0000   1
hk_132            log  factor   2.0933604E-03  1.0000000e-05  1.0000000e+01     hk      1.0000      0.0000   1
hk_133            log  factor   1.8027752E-02  1.0000000e-05  1.0000000e+01     hk      1.0000      0.0000   1
hk_134            log  factor   2.3320283E-02  1.0000000e-05  1.0000000e+01     hk      1.0000      0.0000   1
hk_135            log  factor   4.8594775E-03  1.0000000e-05  1.0000000e+01     hk      1.0000      0.0000   1
hk_136            log  factor   6.1739529E-03  1.0000000e-05  1.0000000e+01     hk      1.0000      0.0000   1
hk_137            log  factor   1.5512004E-02  1.0000000e-05  1.0000000e+01     hk      1.0000      0.0000   1
hk_138            log  factor   5.3761173E-03  1.0000000e-05  1.0000000e+01     hk      1.0000      0.0000   1
hk_139            log  factor   4.5588542E-03  1.0000000e-05  1.0000000e+01     hk      1.0000      0.0000   1
hk_140            log  factor   2.0893408E-03  1.0000000e-05  1.0000000e+01     hk      1.0000      0.0000   1
hk_141            log  factor   2.1145701E-03  1.0000000e-05  1.0000000e+01     hk      1.0000      0.0000   1
hk_142            log  factor   2.5039375E-02  1.0000000e-05  1.0000000e+01     hk      1.0000      0.0000   1
hk_143            log  factor   2.8937410E-02  1.0000000e-05  1.0000000e+01     hk      1.0000      0.0000   1
hk_144            log  factor   8.8368715E-03  1.0000000e-05  1.0000000e+01     hk      1.0000      0.0000   1
hk_145            log  factor   1.1402211E-02  1.0000000e-05  1.0000000e+01     hk      1.0000      0.0000   1
hk_146            log  factor   7.8799594E-03  1.0000000e-05  1.0000000e+01     hk      1.0000      0.0000   1
hk_147            log  factor   1.1316972E-02  1.0000000e-05  1.0000000e+01     hk      1.0000      0.0000   1
hk_148            log  factor   7.6386519E-03  1.0000000e-05  1.0000000e+01     hk      1.0000      0.0000   1
hk_149            log  factor   6.2024108E-03  1.0000000e-05  1.0000000e+01     hk      1.0000      0.0000   1
hk_150            log  factor   8.8432756E-03  1.0000000e-05  1.0000000e+01     hk      1.0000      0.0000   1
hk_151            log  factor   6.0806794E-03  1.0000000e-05  1.0000000e+01     hk      1.0000      0.0000   1
hk_152            log  factor   1.3582338E-02  1.0000000e-05  1.0000000e+01     hk      1.0000      0.0000   1
hk_153            log  factor   9.4060892E-03  1.0000000e-05  1.0000000e+01     hk      1.0000      0.0000   1
hk_154            log  factor   7.8192974E-03  1.0000000e-05  1.0000000e+01     hk      1.0000      0.0000   1
hk_155            log  factor   1.0928221E-02  1.0000000e-05  1.0000000e+01     hk      1.0000      0.0000   1
hk_156            log  factor   1.4945386E-02  1.0000000e-05  1.0000000e+01     hk      1.0000      0.0000   1
hk_157            log  factor   1.0005781E-02  1.0000000e-05  1.0000000e+01     hk      1.0000      0.0000   1
hk_158            log  factor   4.5757766E-03  1.0000000e-05  1.0000000e+01     hk      1.0000      0.0000   1
hk_159            log  factor   3.4962594E-03  1.0000000e-05  1.0000000e+01     hk      1.0000      0.0000   1
hk_160            log  factor   6.5196701E-03  1.0000000e-05  1.0000000e+01     hk      1.0000      0.0000   1
hk_161            log  factor   1.0613941E-02  1.0000000e-05  1.0000000e+01     hk      1.0000      0.0000   1
hk_162            log  factor   5.9344065E-03  1.0000000e-05  1.0000000e+01     hk      1.0000      0.0000   1
hk_163            log  factor   5.7920137E-03  1.0000000e-05  1.0000000e+01     hk      1.0000      0.0000   1
hk_164            log  factor   3.8913895E-03  1.0000000e-05  1.0000000e+01     hk      1.0000      0.0000   1
hk_165            log  factor   1.6403214E-02  1.0000000e-05  1.0000000e+01     hk      1.0000      0.0000   1
hk_166            log  factor   1.1129473E-02  1.0000000e-05  1.0000000e+01     hk      1.0000      0.0000   1
hk_167            log  factor   1.2700650E-02  1.0000000e-05  1.0000000e+01     hk      1.0000      0.0000   1
hk_168            log  factor   9.6984242E-03  1.0000000e-05  1.0000000e+01     hk      1.0000      0.0000   1
hk_169            log  factor   4.9105774E-03  1.0000000e-05  1.0000000e+01     hk      1.0000      0.0000   1
hk_170            log  factor   6.6247045E-03  1.0000000e-05  1.0000000e+01     hk      1.0000      0.0000   1
hk_171            log  factor   5.4326708E-03  1.0000000e-05  1.0000000e+01     hk      1.0000      0.0000   1
hk_172            log  factor   8.7136821E-03  1.0000000e-05  1.0000000e+01     hk      1.0000      0.0000   1
hk_173            log  factor   6.7058652E-03  1.0000000e-05  1.0000000e+01     hk      1.0000      0.0000   1
hk_174            log  factor   6.1401209E-03  1.0000000e-05  1.0000000e+01     hk      1.0000      0.0000   1
hk_175            log  factor   1.4469571E-02  1.0000000e-05  1.0000000e+01     hk      1.0000      0.0000   1
hk_176            log  factor   8.1545583E-03  1.0000000e-05  1.0000000e+01     hk      1.0000      0.0000   1
hk_177            log  factor   9.4076762E-03  1.0000000e-05  1.0000000e+01     hk      1.0000      0.0000   1
hk_178            log  factor   7.6231958E-03  1.0000000e-05  1.0000000e+01     hk      1.0000      0.0000   1
hk_179            log  factor   8.6982956E-03  1.0000000e-05  1.0000000e+01     hk      1.0000      0.0000   1
hk_180            log  factor   1.0397574E-02  1.0000000e-05  1.0000000e+01     hk      1.0000      0.0000   1
hk_181            log  factor   6.6481149E-03  1.0000000e-05  1.0000000e+01     hk      1.0000      0.0000   1
hk_182            log  factor   6.9683028E-03  1.0000000e-05  1.0000000e+01     hk      1.0000      0.0000   1
hk_183            log  factor   1.0270222E-02  1.0000000e-05  1.0000000e+01     hk      1.0000      0.0000   1
hk_184            log  factor   5.7847751E-03  1.0000000e-05  1.0000000e+01     hk      1.0000      0.0000   1
hk_185            log  factor   3.4199455E-03  1.0000000e-05  1.0000000e+01     hk      1.0000      0.0000   1
hk_186            log  factor   3.9741404E-03  1.0000000e-05  1.0000000e+01     hk      1.0000      0.0000   1
hk_187            log  factor   5.2461915E-03  1.0000000e-05  1.0000000e+01     hk      1.0000      0.0000   1
hk_188            log  factor   8.1891160E-03  1.0000000e-05  1.0000000e+01     hk      1.0000      0.0000   1
hk_189            log  factor   1.1650960E-02  1.0000000e-05  1.0000000e+01     hk      1.0000      0.0000   1
hk_190            log  factor   8.6951543E-03  1.0000000e-05  1.0000000e+01     hk      1.0000      0.0000   1
hk_191            log  factor   1.1225743E-02  1.0000000e-05  1.0000000e+01     hk      1.0000      0.0000   1
hk_192            log  factor   9.0856858E-03  1.0000000e-05  1.0000000e+01     hk      1.0000      0.0000   1
hk_193            log  factor   1.5667799E-02  1.0000000e-05  1.0000000e+01     hk      1.0000      0.0000   1
hk_194            log  factor   4.5684114E-03  1.0000000e-05  1.0000000e+01     hk      1.0000      0.0000   1
hk_195            log  factor   1.1097854E-02  1.0000000e-05  1.0000000e+01     hk      1.0000      0.0000   1
hk_196            log  factor   7.5072842E-03  1.0000000e-05  1.0000000e+01     hk      1.0000      0.0000   1
hk_197            log  factor   1.3149412E-02  1.0000000e-05  1.0000000e+01     hk      1.0000      0.0000   1
hk_198            log  factor   6.7990066E-03  1.0000000e-05  1.0000000e+01     hk      1.0000      0.0000   1
aniz_001        fixed  factor    1.000000      1.0000000e-06  5.0000000e+00   aniz      1.0000      0.0000   1
aniz_002        fixed  factor    1.000000      1.0000000e-06  5.0000000e+00   aniz      1.0000      0.0000   1
aniz_003        fixed  factor    1.000000      1.0000000e-06  5.0000000e+00   aniz      1.0000      0.0000   1
aniz_004        fixed  factor    1.000000      1.0000000e-06  5.0000000e+00   aniz      1.0000      0.0000   1
aniz_005        fixed  factor    1.000000      1.0000000e-06  5.0000000e+00   aniz      1.0000      0.0000   1
aniz_006        fixed  factor    1.000000      1.0000000e-06  5.0000000e+00   aniz      1.0000      0.0000   1
aniz_007        fixed  factor    1.000000      1.0000000e-06  5.0000000e+00   aniz      1.0000      0.0000   1
aniz_008        fixed  factor    1.000000      1.0000000e-06  5.0000000e+00   aniz      1.0000      0.0000   1
aniz_009        fixed  factor    1.000000      1.0000000e-06  5.0000000e+00   aniz      1.0000      0.0000   1
aniz_010        fixed  factor    1.000000      1.0000000e-06  5.0000000e+00   aniz      1.0000      0.0000   1
aniz_011        fixed  factor    1.000000      1.0000000e-06  5.0000000e+00   aniz      1.0000      0.0000   1
aniz_012        fixed  factor    1.000000      1.0000000e-06  5.0000000e+00   aniz      1.0000      0.0000   1
aniz_013        fixed  factor    1.000000      1.0000000e-06  5.0000000e+00   aniz      1.0000      0.0000   1
aniz_014        fixed  factor    1.000000      1.0000000e-06  5.0000000e+00   aniz      1.0000      0.0000   1
aniz_015        fixed  factor    1.000000      1.0000000e-06  5.0000000e+00   aniz      1.0000      0.0000   1
aniz_016        fixed  factor    1.000000      1.0000000e-06  5.0000000e+00   aniz      1.0000      0.0000   1
aniz_017        fixed  factor    1.000000      1.0000000e-06  5.0000000e+00   aniz      1.0000      0.0000   1
aniz_018        fixed  factor    1.000000      1.0000000e-06  5.0000000e+00   aniz      1.0000      0.0000   1
aniz_019        fixed  factor    1.000000      1.0000000e-06  5.0000000e+00   aniz      1.0000      0.0000   1
aniz_020        fixed  factor    1.000000      1.0000000e-06  5.0000000e+00   aniz      1.0000      0.0000   1
aniz_021        fixed  factor    1.000000      1.0000000e-06  5.0000000e+00   aniz      1.0000      0.0000   1
aniz_022        fixed  factor    1.000000      1.0000000e-06  5.0000000e+00   aniz      1.0000      0.0000   1
aniz_023        fixed  factor    1.000000      1.0000000e-06  5.0000000e+00   aniz      1.0000      0.0000   1
aniz_024        fixed  factor    1.000000      1.0000000e-06  5.0000000e+00   aniz      1.0000      0.0000   1
aniz_025        fixed  factor    1.000000      1.0000000e-06  5.0000000e+00   aniz      1.0000      0.0000   1
aniz_026        fixed  factor    1.000000      1.0000000e-06  5.0000000e+00   aniz      1.0000      0.0000   1
aniz_027        fixed  factor    1.000000      1.0000000e-06  5.0000000e+00   aniz      1.0000      0.0000   1
aniz_028          log  factor   1.3596480E-02  1.0000000e-06  5.0000000e+00   aniz      1.0000      0.0000   1
aniz_029        fixed  factor    1.000000      1.0000000e-06  5.0000000e+00   aniz      1.0000      0.0000   1
aniz_030        fixed  factor    1.000000      1.0000000e-06  5.0000000e+00   aniz      1.0000      0.0000   1
aniz_031        fixed  factor    1.000000      1.0000000e-06  5.0000000e+00   aniz      1.0000      0.0000   1
aniz_032        fixed  factor    1.000000      1.0000000e-06  5.0000000e+00   aniz      1.0000      0.0000   1
aniz_033        fixed  factor    1.000000      1.0000000e-06  5.0000000e+00   aniz      1.0000      0.0000   1
aniz_034        fixed  factor    1.000000      1.0000000e-06  5.0000000e+00   aniz      1.0000      0.0000   1
aniz_035        fixed  factor    1.000000      1.0000000e-06  5.0000000e+00   aniz      1.0000      0.0000   1
aniz_036          log  factor   0.6076042      1.0000000e-06  5.0000000e+00   aniz      1.0000      0.0000   1
aniz_037          log  factor   9.3538706E-03  1.0000000e-06  5.0000000e+00   aniz      1.0000      0.0000   1
aniz_038          log  factor   1.1846280E-02  1.0000000e-06  5.0000000e+00   aniz      1.0000      0.0000   1
aniz_039        fixed  factor    1.000000      1.0000000e-06  5.0000000e+00   aniz      1.0000      0.0000   1
aniz_040        fixed  factor    1.000000      1.0000000e-06  5.0000000e+00   aniz      1.0000      0.0000   1
aniz_041        fixed  factor    1.000000      1.0000000e-06  5.0000000e+00   aniz      1.0000      0.0000   1
aniz_042        fixed  factor    1.000000      1.0000000e-06  5.0000000e+00   aniz      1.0000      0.0000   1
aniz_043        fixed  factor    1.000000      1.0000000e-06  5.0000000e+00   aniz      1.0000      0.0000   1
aniz_044        fixed  factor    1.000000      1.0000000e-06  5.0000000e+00   aniz      1.0000      0.0000   1
aniz_045          log  factor   0.7014065      1.0000000e-06  5.0000000e+00   aniz      1.0000      0.0000   1
aniz_046          log  factor   1.4469832E-02  1.0000000e-06  5.0000000e+00   aniz      1.0000      0.0000   1
aniz_047          log  factor   9.7633205E-03  1.0000000e-06  5.0000000e+00   aniz      1.0000      0.0000   1
aniz_048        fixed  factor    1.000000      1.0000000e-06  5.0000000e+00   aniz      1.0000      0.0000   1
aniz_049        fixed  factor    1.000000      1.0000000e-06  5.0000000e+00   aniz      1.0000      0.0000   1
aniz_050        fixed  factor    1.000000      1.0000000e-06  5.0000000e+00   aniz      1.0000      0.0000   1
aniz_051        fixed  factor    1.000000      1.0000000e-06  5.0000000e+00   aniz      1.0000      0.0000   1
aniz_052        fixed  factor    1.000000      1.0000000e-06  5.0000000e+00   aniz      1.0000      0.0000   1
aniz_053        fixed  factor    1.000000      1.0000000e-06  5.0000000e+00   aniz      1.0000      0.0000   1
aniz_054          log  factor   0.3060553      1.0000000e-06  5.0000000e+00   aniz      1.0000      0.0000   1
aniz_055          log  factor   8.8764342E-03  1.0000000e-06  5.0000000e+00   aniz      1.0000      0.0000   1
aniz_056          log  factor   2.7542432E-02  1.0000000e-06  5.0000000e+00   aniz      1.0000      0.0000   1
aniz_057        fixed  factor    1.000000      1.0000000e-06  5.0000000e+00   aniz      1.0000      0.0000   1
aniz_058        fixed  factor    1.000000      1.0000000e-06  5.0000000e+00   aniz      1.0000      0.0000   1
aniz_059        fixed  factor    1.000000      1.0000000e-06  5.0000000e+00   aniz      1.0000      0.0000   1
aniz_060        fixed  factor    1.000000      1.0000000e-06  5.0000000e+00   aniz      1.0000      0.0000   1
aniz_061        fixed  factor    1.000000      1.0000000e-06  5.0000000e+00   aniz      1.0000      0.0000   1
aniz_062        fixed  factor    1.000000      1.0000000e-06  5.0000000e+00   aniz      1.0000      0.0000   1
aniz_063          log  factor   0.4970771      1.0000000e-06  5.0000000e+00   aniz      1.0000      0.0000   1
aniz_064          log  factor   1.4871657E-02  1.0000000e-06  5.0000000e+00   aniz      1.0000      0.0000   1