pcf
* control data
restart regularisation
   2784  10001      6    4412     10
    5     2 single point   1   0   0
  5.0  -3.0   0.3  0.03    -999  999
  8.0   8.0 0.001  0
  0.1
    0  0.01     3     3  0.01     3
    1     1     1
* lsqr
         1
    10E-06     10E-06  1000   13140
         0
* parameter groups
HK     relative 0.01  0.0  switch  2.0 parabolic
ANIZ   relative 0.01  0.0  switch  2.0 parabolic
HTR    relative 0.01  0.0  switch  2.0 parabolic
HT_Rat relative 0.01  0.0  switch  2.0 parabolic
ALFA   relative 0.01  0.0  switch  2.0 parabolic
THET   relative 0.01  0.0  switch  2.0 parabolic
* parameter data
hk_001          fixed  factor    999999.0      0.0000000e+00       99999999     hk      1.0000      0.0000   1
hk_002          fixed  factor    999999.0      0.0000000e+00       99999999     hk      1.0000      0.0000   1
hk_003          fixed  factor    999999.0      0.0000000e+00       99999999     hk      1.0000      0.0000   1
hk_004          fixed  factor    999999.0      0.0000000e+00       99999999     hk      1.0000      0.0000   1
hk_005          fixed  factor    999999.0      0.0000000e+00       99999999     hk      1.0000      0.0000   1
hk_006          fixed  factor    999999.0      0.0000000e+00       99999999     hk      1.0000      0.0000   1
hk_007          fixed  factor    999999.0      0.0000000e+00       99999999     hk      1.0000      0.0000   1
hk_008          fixed  factor    999999.0      0.0000000e+00       99999999     hk      1.0000      0.0000   1
hk_009          fixed  factor    999999.0      0.0000000e+00       99999999     hk      1.0000      0.0000   1
hk_010          fixed  factor    999999.0      0.0000000e+00       99999999     hk      1.0000      0.0000   1
hk_011          fixed  factor    999999.0      0.0000000e+00       99999999     hk      1.0000      0.0000   1
hk_012          fixed  factor    999999.0      0.0000000e+00       99999999     hk      1.0000      0.0000   1
hk_013          fixed  factor    999999.0      0.0000000e+00       99999999     hk      1.0000      0.0000   1
hk_014          fixed  factor    999999.0      0.0000000e+00       99999999     hk      1.0000      0.0000   1
hk_015          fixed  factor    999999.0      0.0000000e+00       99999999     hk      1.0000      0.0000   1
hk_016          fixed  factor    999999.0      0.0000000e+00       99999999     hk      1.0000      0.0000   1
hk_017          fixed  factor    999999.0      0.0000000e+00       99999999     hk      1.0000      0.0000   1
hk_018          fixed  factor    999999.0      0.0000000e+00       99999999     hk      1.0000      0.0000   1
hk_019          fixed  factor    999999.0      0.0000000e+00       99999999     hk      1.0000      0.0000   1
hk_020          fixed  factor    999999.0      0.0000000e+00       99999999     hk      1.0000      0.0000   1
hk_021            log  factor   1.1522304E-02  1.0000000e-05  2.0100000e+01     hk      1.0000      0.0000   1
hk_022            log  factor   1.2713623E-02  1.0000000e-05  2.0100000e+01     hk      1.0000      0.0000   1
hk_023            log  factor   1.0964509E-02  1.0000000e-05  2.0100000e+01     hk      1.0000      0.0000   1
hk_024            log  factor   1.1186414E-02  1.0000000e-05  2.0100000e+01     hk      1.0000      0.0000   1
hk_025            log  factor   1.3706310E-02  1.0000000e-05  2.0100000e+01     hk      1.0000      0.0000   1
hk_026            log  factor   1.2763433E-02  1.0000000e-05  2.0100000e+01     hk      1.0000      0.0000   1
hk_027            log  factor   1.2739607E-02  1.0000000e-05  2.0100000e+01     hk      1.0000      0.0000   1
hk_028            log  factor   1.2738156E-02  1.0000000e-05  2.0100000e+01     hk      1.0000      0.0000   1
hk_029            log  factor   1.2738060E-02  1.0000000e-05  2.0100000e+01     hk      1.0000      0.0000   1
hk_030          fixed  factor    999999.0      0.0000000e+00       99999999     hk      1.0000      0.0000   1
hk_031          fixed  factor    999999.0      0.0000000e+00       99999999     hk      1.0000      0.0000   1
hk_032          fixed  factor    999999.0      0.0000000e+00       99999999     hk      1.0000      0.0000   1
hk_033          fixed  factor    999999.0      0.0000000e+00       99999999     hk      1.0000      0.0000   1
hk_034          fixed  factor    999999.0      0.0000000e+00       99999999     hk      1.0000      0.0000   1
hk_035          fixed  factor    999999.0      0.0000000e+00       99999999     hk      1.0000      0.0000   1
hk_036          fixed  factor    999999.0      0.0000000e+00       99999999     hk      1.0000      0.0000   1
hk_037          fixed  factor    999999.0      0.0000000e+00       99999999     hk      1.0000      0.0000   1
hk_038          fixed  factor    999999.0      0.0000000e+00       99999999     hk      1.0000      0.0000   1
hk_039          fixed  factor    999999.0      0.0000000e+00       99999999     hk      1.0000      0.0000   1
hk_040          fixed  factor    999999.0      0.0000000e+00       99999999     hk      1.0000      0.0000   1
hk_041          fixed  factor    999999.0      0.0000000e+00       99999999     hk      1.0000      0.0000   1
hk_042          fixed  factor    999999.0      0.0000000e+00       99999999     hk      1.0000      0.0000   1
hk_043          fixed  factor    999999.0      0.0000000e+00       99999999     hk      1.0000      0.0000   1
hk_044          fixed  factor    999999.0      0.0000000e+00       99999999     hk      1.0000      0.0000   1
hk_045          fixed  factor    999999.0      0.0000000e+00       99999999     hk      1.0000      0.0000   1
hk_046          fixed  factor    999999.0      0.0000000e+00       99999999     hk      1.0000      0.0000   1
hk_047          fixed  factor    999999.0      0.0000000e+00       99999999     hk      1.0000      0.0000   1
hk_048          fixed  factor    999999.0      0.0000000e+00       99999999     hk      1.0000      0.0000   1
hk_049            log  factor   1.3854017E-02  1.0000000e-05  2.0100000e+01     hk      1.0000      0.0000   1
hk_050            log  factor   1.2826464E-02  1.0000000e-05  2.0100000e+01     hk      1.0000      0.0000   1
hk_051            log  factor   1.5366591E-02  1.0000000e-05  2.0100000e+01     hk      1.0000      0.0000   1
hk_052            log  factor   1.2257728E-02  1.0000000e-05  2.0100000e+01     hk      1.0000      0.0000   1
hk_053            log  factor   1.2637314E-02  1.0000000e-05  2.0100000e+01     hk      1.0000      0.0000   1
hk_054            log  factor   1.1469909E-02  1.0000000e-05  2.0100000e+01     hk      1.0000      0.0000   1
hk_055            log  factor   1.2489639E-02  1.0000000e-05  2.0100000e+01     hk      1.0000      0.0000   1
hk_056            log  factor   1.2518145E-02  1.0000000e-05  2.0100000e+01     hk      1.0000      0.0000   1
hk_057            log  factor   1.2518134E-02  1.0000000e-05  2.0100000e+01     hk      1.0000      0.0000   1
hk_058            log  factor   1.2518122E-02  1.0000000e-05  2.0100000e+01     hk      1.0000      0.0000   1
hk_059          fixed  factor    999999.0      0.0000000e+00       99999999     hk      1.0000      0.0000   1
hk_060          fixed  factor    999999.0      0.0000000e+00       99999999     hk      1.0000      0.0000   1
hk_061          fixed  factor    999999.0      0.0000000e+00       99999999     hk      1.0000      0.0000   1
hk_062          fixed  factor    999999.0      0.0000000e+00       99999999     hk      1.0000      0.0000   1
hk_063          fixed  factor    999999.0      0.0000000e+00       99999999     hk      1.0000      0.0000   1
hk_064          fixed  factor    999999.0      0.0000000e+00       99999999     hk      1.0000      0.0000   1
hk_065          fixed  factor    999999.0      0.0000000e+00       99999999     hk      1.0000      0.0000   1
hk_066          fixed  factor    999999.0      0.0000000e+00       99999999     hk      1.0000      0.0000   1
hk_067          fixed  factor    999999.0      0.0000000e+00       99999999     hk      1.0000      0.0000   1
hk_068          fixed  factor    999999.0      0.0000000e+00       99999999     hk      1.0000      0.0000   1
hk_069          fixed  factor    999999.0      0.0000000e+00       99999999     hk      1.0000      0.0000   1
hk_070          fixed  factor    999999.0      0.0000000e+00       99999999     hk      1.0000      0.0000   1
hk_071          fixed  factor    999999.0      0.0000000e+00       99999999     hk      1.0000      0.0000   1
hk_072          fixed  factor    999999.0      0.0000000e+00       99999999     hk      1.0000      0.0000   1
hk_073          fixed  factor    999999.0      0.0000000e+00       99999999     hk      1.0000      0.0000   1
hk_074          fixed  factor    999999.0      0.0000000e+00       99999999     hk      1.0000      0.0000   1
hk_075          fixed  factor    999999.0      0.0000000e+00       99999999     hk      1.0000      0.0000   1
hk_076          fixed  factor    999999.0      0.0000000e+00       99999999     hk      1.0000      0.0000   1
hk_077          fixed  factor    999999.0      0.0000000e+00       99999999     hk      1.0000      0.0000   1
hk_078            log  factor   1.4072074E-02  1.0000000e-05  2.0100000e+01     hk      1.0000      0.0000   1
hk_079            log  factor   1.4421089E-02  1.0000000e-05  2.0100000e+01     hk      1.0000      0.0000   1
hk_080            log  factor   1.5712494E-02  1.0000000e-05  2.0100000e+01     hk      1.0000      0.0000   1
hk_081            log  factor   1.7667388E-02  1.0000000e-05  2.0100000e+01     hk      1.0000      0.0000   1
hk_082            log  factor   1.4113400E-02  1.0000000e-05  2.0100000e+01     hk      1.0000      0.0000   1
hk_083            log  factor   1.2199754E-02  1.0000000e-05  2.0100000e+01     hk      1.0000      0.0000   1
hk_084            log  factor   1.2708416E-02  1.0000000e-05  2.0100000e+01     hk      1.0000      0.0000   1
hk_085            log  factor   1.2725484E-02  1.0000000e-05  2.0100000e+01     hk      1.0000      0.0000   1
hk_086            log  factor   1.2725765E-02  1.0000000e-05  2.0100000e+01     hk      1.0000      0.0000   1
hk_087            log  factor   1.2725772E-02  1.0000000e-05  2.0100000e+01     hk      1.0000      0.0000   1
hk_088            log  factor   1.2380930E-02  1.0000000e-05  2.0100000e+01     hk      1.0000      0.0000   1
hk_089            log  factor   1.2380930E-02  1.0000000e-05  2.0100000e+01     hk      1.0000      0.0000   1
hk_090            log  factor   1.2380915E-02  1.0000000e-05  2.0100000e+01     hk      1.0000      0.0000   1
hk_091            log  factor   1.2380313E-02  1.0000000e-05  2.0100000e+01     hk      1.0000      0.0000   1
hk_092            log  factor   1.2378609E-02  1.0000000e-05  2.0100000e+01     hk      1.0000      0.0000   1
hk_093            log  factor   1.2571017E-02  1.0000000e-05  2.0100000e+01     hk      1.0000      0.0000   1
hk_094            log  factor   1.3933339E-02  1.0000000e-05  2.0100000e+01     hk      1.0000      0.0000   1
hk_095            log  factor   1.2842046E-02  1.0000000e-05  2.0100000e+01     hk      1.0000      0.0000   1
hk_096            log  factor   1.1697502E-02  1.0000000e-05  2.0100000e+01     hk      1.0000      0.0000   1
hk_097            log  factor   1.5033616E-02  1.0000000e-05  2.0100000e+01     hk      1.0000      0.0000   1
hk_098            log  factor   1.3816070E-02  1.0000000e-05  2.0100000e+01     hk      1.0000      0.0000   1
hk_099            log  factor   1.1247976E-02  1.0000000e-05  2.0100000e+01     hk      1.0000      0.0000   1
hk_100          fixed  factor    999999.0      0.0000000e+00       99999999     hk      1.0000      0.0000   1
hk_101          fixed  factor    999999.0      0.0000000e+00       99999999     hk      1.0000      0.0000   1
hk_102          fixed  factor    999999.0      0.0000000e+00       99999999     hk      1.0000      0.0000   1
hk_103          fixed  factor    999999.0      0.0000000e+00       99999999     hk      1.0000      0.0000   1
hk_104          fixed  factor    999999.0      0.0000000e+00       99999999     hk      1.0000      0.0000   1
hk_105          fixed  factor    999999.0      0.0000000e+00       99999999     hk      1.0000      0.0000   1
hk_106          fixed  factor    999999.0      0.0000000e+00       99999999     hk      1.0000      0.0000   1
hk_107            log  factor   1.1418450E-02  1.0000000e-05  2.0100000e+01     hk      1.0000      0.0000   1
hk_108            log  factor   1.3465331E-02  1.0000000e-05  2.0100000e+01     hk      1.0000      0.0000   1
hk_109            log  factor   1.1784827E-02  1.0000000e-05  2.0100000e+01     hk      1.0000      0.0000   1
hk_110            log  factor   1.3316604E-02  1.0000000e-05  2.0100000e+01     hk      1.0000      0.0000   1
hk_111            log  factor   1.5430502E-02  1.0000000e-05  2.0100000e+01     hk      1.0000      0.0000   1
hk_112            log  factor   1.2456955E-02  1.0000000e-05  2.0100000e+01     hk      1.0000      0.0000   1
hk_113            log  factor   1.2500406E-02  1.0000000e-05  2.0100000e+01     hk      1.0000      0.0000   1
hk_114            log  factor   1.2484739E-02  1.0000000e-05  2.0100000e+01     hk      1.0000      0.0000   1
hk_115            log  factor   1.2484091E-02  1.0000000e-05  2.0100000e+01     hk      1.0000      0.0000   1
hk_116            log  factor   1.2484054E-02  1.0000000e-05  2.0100000e+01     hk      1.0000      0.0000   1
hk_117            log  factor   1.2148088E-02  1.0000000e-05  2.0100000e+01     hk      1.0000      0.0000   1
hk_118            log  factor   1.2148087E-02  1.0000000e-05  2.0100000e+01     hk      1.0000      0.0000   1
hk_119            log  factor   1.2148073E-02  1.0000000e-05  2.0100000e+01     hk      1.0000      0.0000   1
hk_120            log  factor   1.2148243E-02  1.0000000e-05  2.0100000e+01     hk      1.0000      0.0000   1
hk_121            log  factor   1.2170008E-02  1.0000000e-05  2.0100000e+01     hk      1.0000      0.0000   1
hk_122            log  factor   1.3527541E-02  1.0000000e-05  2.0100000e+01     hk      1.0000      0.0000   1
hk_123            log  factor   1.2804435E-02  1.0000000e-05  2.0100000e+01     hk      1.0000      0.0000   1
hk_124            log  factor   1.2762994E-02  1.0000000e-05  2.0100000e+01     hk      1.0000      0.0000   1
hk_125            log  factor   1.1421068E-02  1.0000000e-05  2.0100000e+01     hk      1.0000      0.0000   1
hk_126            log  factor   1.3119596E-02  1.0000000e-05  2.0100000e+01     hk      1.0000      0.0000   1
hk_127            log  factor   1.4703209E-02  1.0000000e-05  2.0100000e+01     hk      1.0000      0.0000   1
hk_128            log  factor   1.3205237E-02  1.0000000e-05  2.0100000e+01     hk      1.0000      0.0000   1
hk_129            log  factor   1.9526443E-03  1.0000000e-05  2.0100000e+01     hk      1.0000      0.0000   1
hk_130          fixed  factor    999999.0      0.0000000e+00       99999999     hk      1.0000      0.0000   1
hk_131          fixed  factor    999999.0      0.0000000e+00       99999999     hk      1.0000      0.0000   1
hk_132          fixed  factor    999999.0      0.0000000e+00       99999999     hk      1.0000      0.0000   1
hk_133          fixed  factor    999999.0      0.0000000e+00       99999999     hk      1.0000      0.0000   1
hk_134          fixed  factor    999999.0      0.0000000e+00       99999999     hk      1.0000      0.0000   1
hk_135            log  factor   3.4439761E-02  1.0000000e-05  2.0100000e+01     hk      1.0000      0.0000   1
hk_136            log  factor   1.6436234E-02  1.0000000e-05  2.0100000e+01     hk      1.0000      0.0000   1
hk_137            log  factor   1.2218004E-02  1.0000000e-05  2.0100000e+01     hk      1.0000      0.0000   1
hk_138            log  factor   1.3217583E-02  1.0000000e-05  2.0100000e+01     hk      1.0000      0.0000   1
hk_139            log  factor   1.3233259E-02  1.0000000e-05  2.0100000e+01     hk      1.0000      0.0000   1
hk_140            log  factor   1.3330524E-02  1.0000000e-05  2.0100000e+01     hk      1.0000      0.0000   1
hk_141            log  factor   1.2940423E-02  1.0000000e-05  2.0100000e+01     hk      1.0000      0.0000   1
hk_142            log  factor   1.2764792E-02  1.0000000e-05  2.0100000e+01     hk      1.0000      0.0000   1
hk_143            log  factor   1.2694667E-02  1.0000000e-05  2.0100000e+01     hk      1.0000      0.0000   1
hk_144            log  factor   1.2689148E-02  1.0000000e-05  2.0100000e+01     hk      1.0000      0.0000   1
hk_145            log  factor   1.2688849E-02  1.0000000e-05  2.0100000e+01     hk      1.0000      0.0000   1
hk_146            log  factor   1.2767379E-02  1.0000000e-05  2.0100000e+01     hk      1.0000      0.0000   1
hk_147            log  factor   1.2767378E-02  1.0000000e-05  2.0100000e+01     hk      1.0000      0.0000   1
hk_148            log  factor   1.2767345E-02  1.0000000e-05  2.0100000e+01     hk      1.0000      0.0000   1
hk_149            log  factor   1.2767021E-02  1.0000000e-05  2.0100000e+01     hk      1.0000      0.0000   1
hk_150            log  factor   1.2785251E-02  1.0000000e-05  2.0100000e+01     hk      1.0000      0.0000   1
hk_151            log  factor   1.3463380E-02  1.0000000e-05  2.0100000e+01     hk      1.0000      0.0000   1
hk_152            log  factor   1.2911673E-02  1.0000000e-05  2.0100000e+01     hk      1.0000      0.0000   1
hk_153            log  factor   1.3510785E-02  1.0000000e-05  2.0100000e+01     hk      1.0000      0.0000   1
hk_154            log  factor   1.1594544E-02  1.0000000e-05  2.0100000e+01     hk      1.0000      0.0000   1
hk_155            log  factor   1.5706842E-02  1.0000000e-05  2.0100000e+01     hk      1.0000      0.0000   1
hk_156            log  factor   1.2326634E-02  1.0000000e-05  2.0100000e+01     hk      1.0000      0.0000   1
hk_157            log  factor   1.2205450E-02  1.0000000e-05  2.0100000e+01     hk      1.0000      0.0000   1
hk_158            log  factor   1.5808010E-03  1.0000000e-05  2.0100000e+01     hk      1.0000      0.0000   1
hk_159          fixed  factor    999999.0      0.0000000e+00       99999999     hk      1.0000      0.0000   1
hk_160          fixed  factor    999999.0      0.0000000e+00       99999999     hk      1.0000      0.0000   1
hk_161          fixed  factor    999999.0      0.0000000e+00       99999999     hk      1.0000      0.0000   1
hk_162          fixed  factor    999999.0      0.0000000e+00       99999999     hk      1.0000      0.0000   1
hk_163          fixed  factor    999999.0      0.0000000e+00       99999999     hk      1.0000      0.0000   1
hk_164            log  factor   3.0131908E-02  1.0000000e-05  2.0100000e+01     hk      1.0000      0.0000   1
hk_165            log  factor   1.5502386E-02  1.0000000e-05  2.0100000e+01     hk      1.0000      0.0000   1
hk_166            log  factor   1.1655783E-02  1.0000000e-05  2.0100000e+01     hk      1.0000      0.0000   1
hk_167            log  factor   1.3142525E-02  1.0000000e-05  2.0100000e+01     hk      1.0000      0.0000   1
hk_168            log  factor   1.1216135E-02  1.0000000e-05  2.0100000e+01     hk      1.0000      0.0000   1
hk_169            log  factor   1.2701201E-02  1.0000000e-05  2.0100000e+01     hk      1.0000      0.0000   1
hk_170            log  factor   1.2642197E-02  1.0000000e-05  2.0100000e+01     hk      1.0000      0.0000   1
hk_171            log  factor   1.2684037E-02  1.0000000e-05  2.0100000e+01     hk      1.0000      0.0000   1
hk_172            log  factor   1.2621323E-02  1.0000000e-05  2.0100000e+01     hk      1.0000      0.0000   1
hk_173            log  factor   1.2616457E-02  1.0000000e-05  2.0100000e+01     hk      1.0000      0.0000   1
hk_174            log  factor   1.2616209E-02  1.0000000e-05  2.0100000e+01     hk      1.0000      0.0000   1
hk_175            log  factor   1.2511640E-02  1.0000000e-05  2.0100000e+01     hk      1.0000      0.0000   1
hk_176            log  factor   1.2511640E-02  1.0000000e-05  2.0100000e+01     hk      1.0000      0.0000   1
hk_177            log  factor   1.2511651E-02  1.0000000e-05  2.0100000e+01     hk      1.0000      0.0000   1
hk_178            log  factor   1.2511760E-02  1.0000000e-05  2.0100000e+01     hk      1.0000      0.0000   1
hk_179            log  factor   1.2494942E-02  1.0000000e-05  2.0100000e+01     hk      1.0000      0.0000   1
hk_180            log  factor   1.2122659E-02  1.0000000e-05  2.0100000e+01     hk      1.0000      0.0000   1
hk_181            log  factor   1.3383828E-02  1.0000000e-05  2.0100000e+01     hk      1.0000      0.0000   1
hk_182            log  factor   1.3541678E-02  1.0000000e-05  2.0100000e+01     hk      1.0000      0.0000   1
hk_183            log  factor   1.3046507E-02  1.0000000e-05  2.0100000e+01     hk      1.0000      0.0000   1
hk_184            log  factor   1.1073675E-02  1.0000000e-05  2.0100000e+01     hk      1.0000      0.0000   1
hk_185            log  factor   1.3807633E-02  1.0000000e-05  2.0100000e+01     hk      1.0000      0.0000   1
hk_186            log  factor   1.0983603E-02  1.0000000e-05  2.0100000e+01     hk      1.0000      0.0000   1
hk_187            log  factor   9.9618306E-04  1.0000000e-05  2.0100000e+01     hk      1.0000      0.0000   1
hk_188          fixed  factor    999999.0      0.0000000e+00       99999999     hk      1.0000      0.0000   1
hk_189          fixed  factor    999999.0      0.0000000e+00       99999999     hk      1.0000      0.0000   1
hk_190          fixed  factor    999999.0      0.0000000e+00       99999999     hk      1.0000      0.0000   1
hk_191          fixed  factor    999999.0      0.0000000e+00       99999999     hk      1.0000      0.0000   1
hk_192          fixed  factor    999999.0      0.0000000e+00       99999999     hk      1.0000      0.0000   1
hk_193            log  factor   2.9784249E-02  1.0000000e-05  2.0100000e+01     hk      1.0000      0.0000   1
hk_194            log  factor   1.1623241E-02  1.0000000e-05  2.0100000e+01     hk      1.0000      0.0000   1
hk_195            log  factor   1.5198071E-02  1.0000000e-05  2.0100000e+01     hk      1.0000      0.0000   1
hk_196            log  factor   1.1743541E-02  1.0000000e-05  2.0100000e+01     hk      1.0000      0.0000   1
hk_197            log  factor   1.4520448E-02  1.0000000e-05  2.0100000e+01     hk      1.0000      0.0000   1
hk_198            log  factor   1.2158281E-02  1.0000000e-05  2.0100000e+01     hk      1.0000      0.0000   1
hk_199            log  factor   1.2591193E-02  1.0000000e-05  2.0100000e+01     hk      1.0000      0.0000   1
hk_200            log  factor   1.2884790E-02  1.0000000e-05  2.0100000e+01     hk      1.0000      0.0000   1
hk_201            log  factor   1.2911163E-02  1.0000000e-05  2.0100000e+01     hk      1.0000      0.0000   1
hk_202            log  factor   1.2912833E-02  1.0000000e-05  2.0100000e+01     hk      1.0000      0.0000   1
hk_203            log  factor   1.2912893E-02  1.0000000e-05  2.0100000e+01     hk      1.0000      0.0000   1
hk_204            log  factor   1.2512554E-02  1.0000000e-05  2.0100000e+01     hk      1.0000      0.0000   1
hk_205            log  factor   1.2512554E-02  1.0000000e-05  2.0100000e+01     hk      1.0000      0.0000   1
hk_206            log  factor   1.2512583E-02  1.0000000e-05  2.0100000e+01     hk      1.0000      0.0000   1
hk_207            log  factor   1.2514309E-02  1.0000000e-05  2.0100000e+01     hk      1.0000      0.0000   1
hk_208            log  factor   1.2591727E-02  1.0000000e-05  2.0100000e+01     hk      1.0000      0.0000   1
hk_209            log  factor   1.5127990E-02  1.0000000e-05  2.0100000e+01     hk      1.0000      0.0000   1
hk_210            log  factor   1.1754978E-02  1.0000000e-05  2.0100000e+01     hk      1.0000      0.0000   1
hk_211            log  factor   1.4256782E-02  1.0000000e-05  2.0100000e+01     hk      1.0000      0.0000   1
hk_212            log  factor   1.1302986E-02  1.0000000e-05  2.0100000e+01     hk      1.0000      0.0000   1
hk_213            log  factor   9.7886721E-03  1.0000000e-05  2.0100000e+01     hk      1.0000      0.0000   1
hk_214            log  factor   1.2736180E-02  1.0000000e-05  2.0100000e+01     hk      1.0000      0.0000   1
hk_215            log  factor   1.1863026E-02  1.0000000e-05  2.0100000e+01     hk      1.0000      0.0000   1
hk_216            log  factor   3.5777689E-03  1.0000000e-05  2.0100000e+01     hk      1.0000      0.0000   1
hk_217            log  factor   0.1849687      1.0000000e-05  2.0100000e+01     hk      1.0000      0.0000   1
hk_218            log  factor   0.2390176      1.0000000e-05  2.0100000e+01     hk      1.0000      0.0000   1
hk_219            log  factor   4.3839446E-02  1.0000000e-05  2.0100000e+01     hk      1.0000      0.0000   1
hk_220            log  factor   3.8304301E-02  1.0000000e-05  2.0100000e+01     hk      1.0000      0.0000   1
hk_221            log  factor   3.6584196E-02  1.0000000e-05  2.0100000e+01     hk      1.0000      0.0000   1
hk_222            log  factor   1.4792629E-02  1.0000000e-05  2.0100000e+01     hk      1.0000      0.0000   1
hk_223            log  factor   1.3483841E-02  1.0000000e-05  2.0100000e+01     hk      1.0000      0.0000   1
hk_224            log  factor   1.4871628E-02  1.0000000e-05  2.0100000e+01     hk      1.0000      0.0000   1
hk_225            log  factor   1.4493410E-02  1.0000000e-05  2.0100000e+01     hk      1.0000      0.0000   1
hk_226            log  factor   1.1999009E-02  1.0000000e-05  2.0100000e+01     hk      1.0000      0.0000   1
hk_227            log  factor   1.3011114E-02  1.0000000e-05  2.0100000e+01     hk      1.0000      0.0000   1
hk_228            log  factor   1.2340368E-02  1.0000000e-05  2.0100000e+01     hk      1.0000      0.0000   1
hk_229            log  factor   1.2813467E-02  1.0000000e-05  2.0100000e+01     hk      1.0000      0.0000   1
hk_230            log  factor   1.2903749E-02  1.0000000e-05  2.0100000e+01     hk      1.0000      0.0000   1
hk_231            log  factor   1.2908574E-02  1.0000000e-05  2.0100000e+01     hk      1.0000      0.0000   1
hk_232            log  factor   1.2908706E-02  1.0000000e-05  2.0100000e+01     hk      1.0000      0.0000   1
hk_233            log  factor   1.2803014E-02  1.0000000e-05  2.0100000e+01     hk      1.0000      0.0000   1
hk_234            log  factor   1.2803013E-02  1.0000000e-05  2.0100000e+01     hk      1.0000      0.0000   1
hk_235            log  factor   1.2802965E-02  1.0000000e-05  2.0100000e+01     hk      1.0000      0.0000   1
hk_236            log  factor   1.2802090E-02  1.0000000e-05  2.0100000e+01     hk      1.0000      0.0000   1
hk_237            log  factor   1.2787631E-02  1.0000000e-05  2.0100000e+01     hk      1.0000      0.0000   1
hk_238            log  factor   1.2284402E-02  1.0000000e-05  2.0100000e+01     hk      1.0000      0.0000   1
hk_239            log  factor   1.3405942E-02  1.0000000e-05  2.0100000e+01     hk      1.0000      0.0000   1
hk_240            log  factor   1.0940252E-02  1.0000000e-05  2.0100000e+01     hk      1.0000      0.0000   1
hk_241            log  factor   1.1629042E-02  1.0000000e-05  2.0100000e+01     hk      1.0000      0.0000   1
hk_242            log  factor   1.1585034E-02  1.0000000e-05  2.0100000e+01     hk      1.0000      0.0000   1
hk_243            log  factor   1.1881760E-02  1.0000000e-05  2.0100000e+01     hk      1.0000      0.0000   1
hk_244            log  factor   1.0733450E-02  1.0000000e-05  2.0100000e+01     hk      1.0000      0.0000   1
hk_245            log  factor   7.2413332E-03  1.0000000e-05  2.0100000e+01     hk      1.0000      0.0000   1
hk_246            log  factor    1.591642      1.0000000e-05  2.0100000e+01     hk      1.0000      0.0000   1
hk_247            log  factor   2.3263459E-02  1.0000000e-05  2.0100000e+01     hk      1.0000      0.0000   1
hk_248            log  factor   1.4228831E-02  1.0000000e-05  2.0100000e+01     hk      1.0000      0.0000   1
hk_249            log  factor   3.6727331E-02  1.0000000e-05  2.0100000e+01     hk      1.0000      0.0000   1
hk_250            log  factor   1.2558996E-02  1.0000000e-05  2.0100000e+01     hk      1.0000      0.0000   1
hk_251            log  factor   1.7127060E-02  1.0000000e-05  2.0100000e+01     hk      1.0000      0.0000   1
hk_252            log  factor   1.4199540E-02  1.0000000e-05  2.0100000e+01     hk      1.0000      0.0000   1
hk_253            log  factor   1.7018963E-02  1.0000000e-05  2.0100000e+01     hk      1.0000      0.0000   1
hk_254            log  factor   1.5925882E-02  1.0000000e-05  2.0100000e+01     hk      1.0000      0.0000   1
hk_255            log  factor   1.1872016E-02  1.0000000e-05  2.0100000e+01     hk      1.0000      0.0000   1
hk_256            log  factor   1.3253860E-02  1.0000000e-05  2.0100000e+01     hk      1.0000      0.0000   1
hk_257            log  factor   1.3520599E-02  1.0000000e-05  2.0100000e+01     hk      1.0000      0.0000   1
hk_258            log  factor   1.2755842E-02  1.0000000e-05  2.0100000e+01     hk      1.0000      0.0000   1
hk_259            log  factor   1.2649287E-02  1.0000000e-05  2.0100000e+01     hk      1.0000      0.0000   1
hk_260            log  factor   1.2640429E-02  1.0000000e-05  2.0100000e+01     hk      1.0000      0.0000   1
hk_261            log  factor   1.2639830E-02  1.0000000e-05  2.0100000e+01     hk      1.0000      0.0000   1
hk_262            log  factor   1.3391889E-02  1.0000000e-05  2.0100000e+01     hk      1.0000      0.0000   1