pcf
* control data
restart estimation
9  596  4  0  7
3  2  single  point  1  0  0
1.000000e+001  2.000000e+000  3.000000e-001  1.000000e-002  7
1.000000e+001  1.000000e+001  1.000000e-003
1.000000e-001 noaui
20  1.000000e-002  3  3  1.000000e-002  3
0  0  0
* parameter groups
Kx     relative   1.000000e-002  0.000000e+000  switch  2.000000e+000  parabolic
Kz     relative   1.000000e-002  0.000000e+000  switch  2.000000e+000  parabolic
Rech   relative   1.000000e-002  0.000000e+000  switch  2.000000e+000  parabolic
Lake   relative   1.000000e-002  0.000000e+000  switch  2.000000e+000  parabolic
* parameter data
kx13  log   factor    18.58861      0.500000e+001  1.000000e+002    kx   1.0   0.0 1
kz13  tied  factor   0.1858861      1.000000e-002  4.500000e+000    kz   1.0   0.0 1
kx5   log   factor    154.3286      1.000000e+001  3.000000e+002    kx   1.0   0.0 1
kz5   log   factor   1.8654509E-02  1.000000e-003  1.000000e-000    kz   1.0   0.0 1
kx10  fixed  factor    10.00000      1.000000e+000  5.000000e+001    kx   1.0   0.0 1
kz10  fixed  factor   5.0000000E-03  1.000000e-004  1.000000e-001    kz   1.0   0.0 1
r1    none   factor    16.75515      6.0            22.1             rech   0.00022831   0.0 1
leakmult  none  factor   0.6296083      0.001          10.0             lake   1.0   0.0 1
evap  none   factor    32.11113      27.0           36.0             lake   0.00022831   0.0 1
kz13 kx13
* observation groups
Head10
Head50
Head100
Head200
Flux30
Flux40
Lake
* observation data
SC-C2    933.6600    0.500000  Head10
SC-C5    1001.4900    0.500000  Head10
SC-U2    962.9100    0.500000  Head10
Hammond    1042.8200    1.000000  Head10
Woodville    1086.6100    1.000000  Head10
o6    1053.0000    0.100000  Head50
o7    1010.0000    0.100000  Head50
o8    1040.0000    0.100000  Head50
o9    1077.0000    0.100000  Head50
o10    1054.0000    0.100000  Head50
o11    1040.0000    0.100000  Head50
o12    1069.0000    0.100000  Head50
o13    1047.0000    0.100000  Head50
o14    1050.0000    0.100000  Head50
o15    1065.0000    0.100000  Head50
o16    1053.0000    0.100000  Head50
o17    1056.0000    0.100000  Head50
o18    1037.0000    0.100000  Head50
o19    1015.0000    0.100000  Head50
o20    967.0000    0.100000  Head50
o21    1005.0000    0.100000  Head50
o22    1045.0000    0.100000  Head50
o23    1045.0000    0.100000  Head50
o24    1035.0000    0.100000  Head50
o25    1053.0000    0.100000  Head50
o26    1040.0000    0.100000  Head50
o27    1053.0000    0.100000  Head50
o28    1010.0000    0.100000  Head50
o29    942.0000    0.100000  Head50
o30    938.0000    0.100000  Head50
o31    945.0000    0.100000  Head50
o32    965.0000    0.100000  Head50
o33    940.0000    0.100000  Head50
o34    930.0000    0.100000  Head50
o35    906.0000    0.100000  Head50
o36    970.0000    0.100000  Head50
o37    986.0000    0.100000  Head50
o38    965.0000    0.100000  Head50
o39    930.0000    0.100000  Head50
o40    895.0000    0.100000  Head50
o41    910.0000    0.100000  Head50
o42    932.0000    0.100000  Head50
o43    920.0000    0.100000  Head50
o44    842.0000    0.100000  Head50
o45    887.0000    0.100000  Head50
o46    845.0000    0.100000  Head50
o47    805.0000    0.100000  Head50
o48    805.0000    0.100000  Head50
o49    888.0000    0.100000  Head50
o50    887.0000    0.100000  Head50
o51    896.0000    0.100000  Head50
o52    860.0000    0.100000  Head50
o53    855.0000    0.100000  Head50
o54    915.0000    0.100000  Head50
o55    838.0000    0.100000  Head50
o56    903.0000    0.100000  Head50
o57    890.0000    0.100000  Head50
o58    895.0000    0.100000  Head50
o59    807.0000    0.100000  Head50
o60    1060.0000    0.100000  Head50
o61    1066.0000    0.100000  Head50
o62    1064.0000    0.100000  Head50
o63    1050.0000    0.100000  Head50
o64    1049.0000    0.100000  Head50
o65    1058.0000    0.100000  Head50
o66    1058.0000    0.100000  Head50
o67    1072.0000    0.100000  Head50
o68    1068.0000    0.100000  Head50
o69    1045.0000    0.100000  Head50
o70    1050.0000    0.100000  Head50
o71    1037.0000    0.100000  Head50
o72    1080.0000    0.100000  Head50
o73    1060.0000    0.100000  Head50
o74    1070.0000    0.100000  Head50
o75    990.0000    0.100000  Head50
o76    974.0000    0.100000  Head50
o77    1018.0000    0.100000  Head50
o78    1062.0000    0.100000  Head50
o79    1046.0000    0.100000  Head50
o80    971.0000    0.100000  Head50
o81    977.0000    0.100000  Head50
o82    1047.0000    0.100000  Head50
o83    1040.0000    0.100000  Head50
o84    1020.0000    0.100000  Head50
o85    970.0000    0.100000  Head50
o86    1044.0000    0.100000  Head50
o87    1045.0000    0.100000  Head50
o88    1057.0000    0.100000  Head50
o89    930.0000    0.100000  Head50
o90    960.0000    0.100000  Head50
o91    935.0000    0.100000  Head50
o92    944.0000    0.100000  Head50
o93    905.0000    0.100000  Head50
o94    897.0000    0.100000  Head50
o95    960.0000    0.100000  Head50
o96    925.0000    0.100000  Head50
o97    890.0000    0.100000  Head50
o98    884.0000    0.100000  Head50
o99    967.0000    0.100000  Head50
o100    948.0000    0.100000  Head50
o101    960.0000    0.100000  Head50
o102    968.0000    0.100000  Head50
o103    970.0000    0.100000  Head50
o104    992.0000    0.100000  Head50
o105    967.0000    0.100000  Head50
o106    948.0000    0.100000  Head50
o107    910.0000    0.100000  Head50
o108    925.0000    0.100000  Head50
o109    970.0000    0.100000  Head50
o110    952.0000    0.100000  Head50
o111    968.0000    0.100000  Head50
o112    940.0000    0.100000  Head50
o113    942.0000    0.100000  Head50
o114    935.0000    0.100000  Head50
o115    945.0000    0.100000  Head50
o116    930.0000    0.100000  Head50
o117    950.0000    0.100000  Head50
o118    837.0000    0.100000  Head50
o119    845.0000    0.100000  Head50
o120    867.0000    0.100000  Head50
o121    875.0000    0.100000  Head50
o122    845.0000    0.100000  Head50
o123    832.0000    0.100000  Head50
o124    863.0000    0.100000  Head50
o125    895.0000    0.100000  Head50
o126    907.0000    0.100000  Head50
o127    832.0000    0.100000  Head50
o128    857.0000    0.100000  Head50
o129    780.0000    0.100000  Head50
o130    919.0000    0.100000  Head50
o131    1037.0000    0.100000  Head50
o132    1043.0000    0.100000  Head50
o133    1055.0000    0.100000  Head50
o134    1055.0000    0.100000  Head50
o135    1092.0000    0.100000  Head50
o136    1065.0000    0.100000  Head50
o137    1075.0000    0.100000  Head50
o138    1050.0000    0.100000  Head50
o139    1010.0000    0.100000  Head50
o140    995.0000    0.100000  Head50
o141    982.0000    0.100000  Head50
o142    968.0000    0.100000  Head50
o143    980.0000    0.100000  Head50
o144    1001.0000    0.100000  Head50
o145    1040.0000    0.100000  Head50
o146    974.0000    0.100000  Head50
o147    988.0000    0.100000  Head50
o148    1045.0000    0.100000  Head50
o149    956.0000    0.100000  Head50
o150    960.0000    0.100000  Head50
o151    960.0000    0.100000  Head50
o152    972.0000    0.100000  Head50
o153    940.0000    0.100000  Head50
o154    945.0000    0.100000  Head50
o155    955.0000    0.100000  Head50
o156    910.0000    0.100000  Head50
o157    888.0000    0.100000  Head50
o158    905.0000    0.100000  Head50
o159    1073.0000    0.100000  Head50
o160    1057.0000    0.100000  Head50
o161    1064.0000    0.100000  Head50
o162    1038.0000    0.100000  Head50
o163    1020.0000    0.100000  Head50
o164    1025.0000    0.100000  Head50
o165    1025.0000    0.100000  Head50
o166    1047.0000    0.100000  Head50
o167    960.0000    0.100000  Head50
o168    1029.0000    0.100000  Head50
o169    1032.0000    0.100000  Head50
o170    1037.0000    0.100000  Head50
o171    1070.0000    0.100000  Head50
o172    1090.0000    0.100000  Head50
o173    1074.0000    0.100000  Head50
o174    1054.0000    0.100000  Head50
o175    1057.0000    0.100000  Head50
o176    1042.0000    0.100000  Head50
o177    1026.0000    0.100000  Head50
o178    1040.0000    0.100000  Head50
o179    1038.0000    0.100000  Head50
o180    1027.0000    0.100000  Head50
o181    1030.0000    0.100000  Head50
o182    1028.0000    0.100000  Head50
o183    1041.0000    0.100000  Head50
o184    1026.0000    0.100000  Head50
o185    1045.0000    0.100000  Head50
o186    1047.0000    0.100000  Head50
o187    1042.0000    0.100000  Head50
o188    1025.0000    0.100000  Head50
o189    1040.0000    0.100000  Head50
o190    1025.0000    0.100000  Head50
o191    1045.0000    0.100000  Head50
o192    1032.0000    0.100000  Head50
o193    1015.0000    0.100000  Head50
o194    1035.0000    0.100000  Head50
o195    1008.0000    0.100000  Head50
o196    993.0000    0.100000  Head50
o197    995.0000    0.100000  Head50
o198    975.0000    0.100000  Head50
o199    975.0000    0.100000  Head50
o200    988.0000    0.100000  Head50
o201    992.0000    0.100000  Head50
o202    1030.0000    0.100000  Head50
o203    1030.0000    0.100000  Head50
o204    1043.0000    0.100000  Head50
o205    1020.0000    0.100000  Head50
o206    1037.0000    0.100000  Head50
o207    1000.0000    0.100000  Head50
o208    1025.0000    0.100000  Head50
o209    1023.0000    0.100000  Head50
o210    1009.0000    0.100000  Head50
o211    990.0000    0.100000  Head50
o212    970.0000    0.100000  Head50
o213    985.0000    0.100000  Head50
o214    983.0000    0.100000  Head50
o215    1033.0000    0.100000  Head50
o216    1030.0000    0.100000  Head50
o217    1022.0000    0.100000  Head50
o218    1037.0000    0.100000  Head50
o219    1006.0000    0.100000  Head50
o220    949.0000    0.100000  Head50
o221    930.0000    0.100000  Head50
o222    942.0000    0.100000  Head50
o223    916.0000    0.100000  Head50
o224    937.0000    0.100000  Head50
o225    937.0000    0.100000  Head50
o226    940.0000    0.100000  Head50
o227    935.0000    0.100000  Head50
o228    936.0000    0.100000  Head50
o229    922.0000    0.100000  Head50
o230    925.0000    0.100000  Head50
o231    920.0000    0.100000  Head50
o232    895.0000    0.100000  Head50
o233    927.0000    0.100000  Head50
o234    932.0000    0.100000  Head50
o235    955.0000    0.100000  Head50
o236    930.0000    0.100000  Head50
o237    948.0000    0.100000  Head50
o238    952.0000    0.100000  Head50
o239    939.0000    0.100000  Head50
o240    941.0000    0.100000  Head50
o241    941.0000    0.100000  Head50
o242    942.0000    0.100000  Head50
o243    945.0000    0.100000  Head50
o244    970.0000    0.100000  Head50
o245    915.0000    0.100000  Head50
o246    919.0000    0.100000  Head50
o247    973.0000    0.100000  Head50
o248    940.0000    0.100000  Head50
o249    945.0000    0.100000  Head50
o250    895.0000    0.100000  Head50
o251    928.0000    0.100000  Head50
o252    923.0000    0.100000  Head50
o253    906.0000    0.100000  Head50
o254    922.0000    0.100000  Head50
o255    939.0000    0.100000  Head50
o256    916.0000    0.100000  Head50
o257    925.0000    0.100000  Head50
o258    935.0000    0.100000  Head50
o259    946.0000    0.100000  Head50
o260    908.0000    0.100000  Head50
o261    955.0000    0.100000  Head50
o262    991.0000    0.100000  Head50
o263    980.0000    0.100000  Head50
o264    930.0000    0.100000  Head50
o265    899.0000    0.100000  Head50
o266    885.0000    0.100000  Head50
o267    917.0000    0.100000  Head50
o268    907.0000    0.100000  Head50
o269    910.0000    0.100000  Head50
o270    860.0000    0.100000  Head50
o271    847.0000    0.100000  Head50
o272    816.0000    0.100000  Head50
o273    835.0000    0.100000  Head50
o274    840.0000    0.100000  Head50
o275    808.0000    0.100000  Head50
o276    820.0000    0.100000  Head50
o277    805.0000    0.100000  Head50
o278    856.0000    0.100000  Head50
o279    860.0000    0.100000  Head50
o280    845.0000    0.100000  Head50
o281    904.0000    0.100000  Head50
o282    931.0000    0.100000  Head50
o283    923.0000    0.100000  Head50
o284    915.0000    0.100000  Head50
o285    925.0000    0.100000  Head50
o286    877.0000    0.100000  Head50
o287    871.0000    0.100000  Head50
o288    914.0000    0.100000  Head50
o289    867.0000    0.100000  Head50
o290    892.0000    0.100000  Head50
o291    832.0000    0.100000  Head50
o292    832.0000    0.100000  Head50
o293    833.0000    0.100000  Head50
o294    904.0000    0.100000  Head50
o295    875.0000    0.100000  Head50
o296    877.0000    0.100000  Head50
o297    908.0000    0.100000  Head50
o298    915.0000    0.100000  Head50
o299    920.0000    0.100000  Head50
o300    875.0000    0.100000  Head50
o301    865.0000    0.100000  Head50
o302    911.0000    0.100000  Head50
o303    879.0000    0.100000  Head50
o304    869.0000    0.100000  Head50
o305    855.0000    0.100000  Head50
o306    895.0000    0.100000  Head50
o307    1053.0000    0.100000  Head50
o308    1045.0000    0.100000  Head50
o309    1051.0000    0.100000  Head50
o310    1039.0000    0.100000  Head50
o311    1035.0000    0.100000  Head50
o312    1042.0000    0.100000  Head50
o313    1037.0000    0.100000  Head50
o314    1050.0000    0.100000  Head50
o315    1067.0000    0.100000  Head50
o316    1049.0000    0.100000  Head50
o317    1013.0000    0.100000  Head50
o318    1031.0000    0.100000  Head50
o319    1035.0000    0.100000  Head50
o320    1053.0000    0.100000  Head50
o321    1030.0000    0.100000  Head50
o322    1044.0000    0.100000  Head50
o323    1040.0000    0.100000  Head50
o324    1042.0000    0.100000  Head50
o325    1025.0000    0.100000  Head50
o326    1041.0000    0.100000  Head50
o327    1036.0000    0.100000  Head50
o328    1034.0000    0.100000  Head50
o329    1040.0000    0.100000  Head50
o330    1055.0000    0.100000  Head50
o331    1030.0000    0.100000  Head50
o332    1038.0000    0.100000  Head50
o333    1068.0000    0.100000  Head50
o334    1054.0000    0.100000  Head50
o335    1042.0000    0.100000  Head50
o336    1060.0000    0.100000  Head50
o337    1075.0000    0.100000  Head50
o338    1042.0000    0.100000  Head50
o339    1066.0000    0.100000  Head50
o340    1061.0000    0.100000  Head50
o341    1050.0000    0.100000  Head50
o342    1053.0000    0.100000  Head50
o343    1059.0000    0.100000  Head50
o344    1036.0000    0.100000  Head50
o345    1043.0000    0.100000  Head50
o346    1039.0000    0.100000  Head50
o347    1034.0000    0.100000  Head50
o348    1040.0000    0.100000  Head50
o349    1070.0000    0.100000  Head50
o350    1114.0000    0.100000  Head50
o351    1026.0000    0.100000  Head50
o352    1028.0000    0.100000  Head50
o353    1022.0000    0.100000  Head50
o354    1023.0000    0.100000  Head50
o355    1008.0000    0.100000  Head50
o356    1011.0000    0.100000  Head50
o357    1014.0000    0.100000  Head50
o358    979.0000    0.100000  Head50
o359    980.0000    0.100000  Head50
o360    985.0000    0.100000  Head50
o361    1008.0000    0.100000  Head50
o362    1018.0000    0.100000  Head50
o363    1015.0000    0.100000  Head50
o364    1016.0000    0.100000  Head50
o365    1025.0000    0.100000  Head50
o366    1022.0000    0.100000  Head50
o367    1053.0000    0.100000  Head50
o368    984.0000    0.100000  Head50
o369    1021.0000    0.100000  Head50
o370    1028.0000    0.100000  Head50
o371    974.0000    0.100000  Head50
o372    990.0000    0.100000  Head50
o373    815.0000    0.100000  Head50
o374    993.0000    0.100000  Head50
o375    1016.0000    0.100000  Head50
o376    1030.0000    0.100000  Head50
o377    1045.0000    0.100000  Head50
o378    999.0000    0.100000  Head50
o379    1050.0000    0.100000  Head50
o380    1033.0000    0.100000  Head50
o381    1039.0000    0.100000  Head50
o382    1034.0000    0.100000  Head50
o383    1060.0000    0.100000  Head50
o384    1038.0000    0.100000  Head50
o385    1038.0000    0.100000  Head50
o386    1031.0000    0.100000  Head50
o387    1036.0000    0.100000  Head50
o388    1042.0000    0.100000  Head50
o389    960.0000    0.100000  Head50
o390    962.0000    0.100000  Head50
o391    1035.0000    0.100000  Head50
o392    1031.0000    0.100000  Head50
o393    1038.0000    0.100000  Head50
o394    1039.0000    0.100000  Head50
o395    962.0000    0.100000  Head50
o396    974.0000    0.100000  Head50
o397    950.0000    0.100000  Head50
o398    965.0000    0.100000  Head50
o399    955.0000    0.100000  Head50
o400    935.0000    0.100000  Head50
o401    904.0000    0.100000  Head50
o402    927.0000    0.100000  Head50
o403    855.0000    0.100000  Head50
o404    917.0000    0.100000  Head50
o405    901.0000    0.100000  Head50
o406    923.0000    0.100000  Head50
o407    933.0000    0.100000  Head50
o408    950.0000    0.100000  Head50
o409    895.0000    0.100000  Head50
o410    973.0000    0.100000  Head50
o411    989.0000    0.100000  Head50
o412    953.0000    0.100000  Head50
o413    947.0000    0.100000  Head50
o414    972.0000    0.100000  Head50
o415    960.0000    0.100000  Head50
o416    951.0000    0.100000  Head50
o417    975.0000    0.100000  Head50
o418    938.0000    0.100000  Head50
o419    945.0000    0.100000  Head50
o420    918.0000    0.100000  Head50
o421    927.0000    0.100000  Head50
o422    933.0000    0.100000  Head50
o423    928.0000    0.100000  Head50
o424    938.0000    0.100000  Head50
o425    952.0000    0.100000  Head50
o426    959.0000    0.100000  Head50
o427    951.0000    0.100000  Head50
o428    955.0000    0.100000  Head50
o429    960.0000    0.100000  Head50
o430    938.0000    0.100000  Head50
o431    925.0000    0.100000  Head50
o432    930.0000    0.100000  Head50
o433    930.0000    0.100000  Head50
o434    915.0000    0.100000  Head50
o435    1034.0000    0.100000  Head50
o436    940.0000    0.100000  Head50
o437    884.0000    0.100000  Head50
o438    844.0000    0.100000  Head50
o439    816.0000    0.100000  Head50
o440    836.0000    0.100000  Head50
o441    848.0000    0.100000  Head50
o442    860.0000    0.100000  Head50
o443    875.0000    0.100000  Head50
o444    875.0000    0.100000  Head50
o445    805.0000    0.100000  Head50
o446    843.0000    0.100000  Head50
o447    836.0000    0.100000  Head50
o448    828.0000    0.100000  Head50
o449    843.0000    0.100000  Head50
o450    823.0000    0.100000  Head50
o451    841.0000    0.100000  Head50
o452    846.0000    0.100000  Head50
o453    830.0000    0.100000  Head50
o454    835.0000    0.100000  Head50
o455    875.0000    0.100000  Head50
o456    901.0000    0.100000  Head50
o457    880.0000    0.100000  Head50
o458    828.0000    0.100000  Head50
o459    838.0000    0.100000  Head50
o460    714.0000    0.100000  Head50
o461    805.0000    0.100000  Head50
o462    812.0000    0.100000  Head50
o463    830.0000    0.100000  Head50
o464    835.0000    0.100000  Head50
o465    827.0000    0.100000  Head50
o466    838.0000    0.100000  Head50
o467    910.0000    0.100000  Head50
o468    875.0000    0.100000  Head50
o469    900.0000    0.100000  Head50
o470    929.0000    0.100000  Head50
o471    1030.0000    0.100000  Head50
o472    1040.0000    0.100000  Head50
o473    969.0000    0.100000  Head50
o474    1060.0000    0.100000  Head50
o475    1070.0000    0.100000  Head50
o476    1065.0000    0.100000  Head50
o477    1067.0000    0.100000  Head50
o478    1053.0000    0.100000  Head50
o479    1055.0000    0.100000  Head50
o480    1066.0000    0.100000  Head50
o481    1113.0000    0.100000  Head50
o482    1065.0000    0.100000  Head50
o483    1051.0000    0.100000  Head50
o484    1029.0000    0.100000  Head50
o485    1041.0000    0.100000  Head50
o486    1041.0000    0.100000  Head50
o487    1035.0000    0.100000  Head50
o488    1041.0000    0.100000  Head50
o489    1043.0000    0.100000  Head50
o490    1040.0000    0.100000  Head50
o491    1046.0000    0.100000  Head50
o492    1051.0000    0.100000  Head50
o493    1046.0000    0.100000  Head50
o494    1010.0000    0.100000  Head50
o495    994.0000    0.100000  Head50
o496    978.0000    0.100000  Head50
o497    990.0000    0.100000  Head50
o498    972.0000    0.100000  Head50
o499    958.0000    0.100000  Head50
o500    973.0000    0.100000  Head50
o501    1017.0000    0.100000  Head50
o502    970.0000    0.100000  Head50
o503    1010.0000    0.100000  Head50
o504    1031.0000    0.100000  Head50
o505    1000.0000    0.100000  Head50
o506    1020.0000    0.100000  Head50
o507    1024.0000    0.100000  Head50
o508    1021.0000    0.100000  Head50
o509    1004.0000    0.100000  Head50
o510    983.0000    0.100000  Head50
o511    970.0000    0.100000  Head50
o512    992.0000    0.100000  Head50
o513    1018.0000    0.100000  Head50
o514    992.0000    0.100000  Head50
o515    1002.0000    0.100000  Head50
o516    1020.0000    0.100000  Head50
o517    1042.0000    0.100000  Head50
o518    1017.0000    0.100000  Head50
o519    970.0000    0.100000  Head50
o520    960.0000    0.100000  Head50
o521    1030.0000    0.100000  Head50
o522    958.0000    0.100000  Head50
o523    969.0000    0.100000  Head50
o524    946.0000    0.100000  Head50
o525    927.0000    0.100000  Head50
o526    926.0000    0.100000  Head50
o527    955.0000    0.100000  Head50
o528    955.0000    0.100000  Head50
o529    957.0000    0.100000  Head50
o530    961.0000    0.100000  Head50
o531    960.0000    0.100000  Head50
o532    949.0000    0.100000  Head50
o533    955.0000    0.100000  Head50
o534    934.0000    0.100000  Head50
o535    927.0000    0.100000  Head50
o536    911.0000    0.100000  Head50
o537    893.0000    0.100000  Head50
o538    926.0000    0.100000  Head50
o539    930.0000    0.100000  Head50
o540    943.0000    0.100000  Head50
o541    948.0000    0.100000  Head50
o542    960.0000    0.100000  Head50
o543    957.0000    0.100000  Head50
o544    962.0000    0.100000  Head50
o545    962.0000    0.100000  Head50
o546    962.0000    0.100000  Head50
o547    977.0000    0.100000  Head50
o548    952.0000    0.100000  Head50
o549    960.0000    0.100000  Head50
o550    940.0000    0.100000  Head50
o551    936.0000    0.100000  Head50
o552    917.0000    0.100000  Head50
o553    925.0000    0.100000  Head50
o554    910.0000    0.100000  Head50
o555    907.0000    0.100000  Head50
o556    905.0000    0.100000  Head50
o557    913.0000    0.100000  Head50
o558    929.0000    0.100000  Head50
o559    927.0000    0.100000  Head50
o560    941.0000    0.100000  Head50
o561    945.0000    0.100000  Head50
o562    960.0000    0.100000  Head50
o563    962.0000    0.100000  Head50
o564    965.0000    0.100000  Head50
o565    886.0000    0.100000  Head50
pond1    959.7600    2.000000  Head100
pond2    964.4900    2.000000  Head100
pond3    986.4500    2.000000  Head100
pond4    972.4600    2.000000  Head100
P1       967.91      2.00000  Head200
P2       967.91      2.00000  Head200
P3       967.01      2.00000  Head200
P4       966.61      2.00000  Head200
P5       954.01      2.00000  Head200
P6       966.71      2.00000  Head200
P7       966.11      2.00000  Head200
P8       966.81      2.00000  Head200
P9       970.51      2.00000  Head200
J4             574560.0000    0.000000e-005  Flux40
KINNI-J1       732672.0000    2.000000e-004  Flux30
J6            2592000.0000    0.000000e-005  Flux40
J7            2764800.0000    0.000000e-005  Flux40
KINNI-J8      3611520.0000    0.000000e-005  Flux30
B11           4060800.0000    0.000000e-005  Flux40
B12           4631040.0000    0.000000e-005  Flux40
KINNI-B14     4449600.0000    0.000000e-005  Flux30
B25           6082560.0000    0.000000e-005  Flux40
J14           4950720.0000    0.000000e-005  Flux40
B21           6004800.0000    0.000000e-005  Flux40
KINNI-J13     5624640.0000    0.000000e-005  Flux30
B3             105408.0000    0.000000e-005  Flux40
B4             158976.0000    0.000000e-005  Flux40
B2             345600.0000    0.000000e-005  Flux40
PARKER-B10     881280.0000    0.000000e-005  Flux30
B8             127872.0000    0.000000e-005  Flux40
Twin_Lake         966.41      30.0000        Lake
* model command line
SC15.bat
* model input/output
par2par15.tpl       par2par15.dat
SC15-lak.tpl        SC15.lak
SC15-recharge.tpl   SC15.rch
SC15-targpest.ins   targpest.out
SC15_Q-n-lakes.ins   SC15_gages.out
