pcf
* control data
restart estimation
9 839 5 0 3
1  1  double  point  1  0  0
1.000000e+001  2.000000e+000  3.000000e-001  1.000000e-002  10
1.000000e+001  1.000000e+001  1.000000e-003
1.000000e-001 noaui
0  1.000000e-002  3  3  1.000000e-002  3
1  1  1
* parameter groups
Kh     relative   1.000000e-002  0.000000e+000  switch  2.000000e+000  parabolic
Base   relative   1.000000e-002  0.000000e+000  switch  2.000000e+000  parabolic
Rch    relative   1.000000e-002  0.000000e+000  switch  2.000000e+000  parabolic
Res    relative   1.000000e-002  0.000000e+000  switch  2.000000e+000  parabolic
RO     relative   1.000000e-002  0.000000e+000  switch  2.000000e+000  parabolic
* parameter data
kdomain_____	log   factor    22.19947      3.182	 318.2	kh     1.0      0.0 1
base________	fixed  factor    800.0000      80	 8000	base   1.0      0.0 1
recharge____	none  factor    1.755225      .182648	 18.2648	rch    -0.001     0.0 1
cdrainage___	fixed  factor    10.00000      10	 100	res    1.0      0.0 1
csawyercr___	log  factor   0.1235354      .05	 100	res    1.0      0.0 1
cseepage____	fixed  factor    20.00000      10	 200	res    1.0      0.0 1
cshelllake__	log  factor    585.9714      30	 300000	res    1.0      0.0 1
resistance__	log  factor   5.0000000E-02  .05	 5	res    1.0      0.0 1
shellro_____    fixed   factor    330048.0      247536   412560  ro    1.0      0.0 1
* observation groups
Head
Streamflow
Lakestage
* observation data
TW861 1172	0.004800 Head
NA233 1175	0.004800 Head
SN713 1192	0.004800 Head
RK771 1158	0.004800 Head
TN425 1158	0.004800 Head
RT244 1183	0.004800 Head
RH268 1217	0.004800 Head
LZ528 1256	0.004800 Head
MZ817 1235	0.004800 Head
QV356 1196	0.004800 Head
LF826 1126	0.004800 Head
SQ649 1239	0.004800 Head
NG046 1215	0.004800 Head
MQ796 1171	0.004800 Head
TR944 1219	0.004800 Head
RS226 1199	0.004800 Head
VL941 1144	0.004800 Head
LF863 989	0.004800 Head
QV357 1212	0.004800 Head
RF215 1183	0.004800 Head
QU755 1197	0.004800 Head
SD209 1189	0.004800 Head
ND407 1026	0.004800 Head
MU861 1198	0.004800 Head
OP979 1256	0.004800 Head
OP978 1187	0.004800 Head
OV839 1054	0.004800 Head
NM383 1146	0.004800 Head
NR326 1042	0.004800 Head
NI477 1233	0.004800 Head
MM261 1225	0.004800 Head
QY776 1201	0.004800 Head
RP900 1217	0.004800 Head
OV943 1166	0.004800 Head
RH270 1223	0.004800 Head
LZ546 1166	0.004800 Head
NY942 1215	0.004800 Head
OB644 1230	0.004800 Head
MM307 1237	0.004800 Head
NU941 1235	0.004800 Head
QL482 1225	0.004800 Head
LK233 1207	0.004800 Head
NL356 1158	0.004800 Head
LU862 1215	0.004800 Head
ND496 1273	0.004800 Head
MM253 1227	0.004800 Head
NK286 1203	0.004800 Head
OO017 1176	0.004800 Head
LH628 1213	0.004800 Head
OI494 1245	0.004800 Head
TW404 1153	0.004800 Head
MP239 1155	0.004800 Head
TB725 1165	0.004800 Head
SW257 1222	0.004800 Head
OH732 1233	0.004800 Head
QR938 1134	0.004800 Head
MM245 1206	0.004800 Head
MH935 1204	0.004800 Head
TC660 1247	0.004800 Head
SN755 1187	0.004800 Head
RS114 1198	0.004800 Head
QV355 1222	0.004800 Head
MH903 1226	0.004800 Head
NM315 1216	0.004800 Head
LH609 1198	0.004800 Head
LH660 1107	0.004800 Head
RV911 1190	0.004800 Head
OV944 1227	0.004800 Head
NA158 1167	0.004800 Head
NA127 1229	0.004800 Head
LH649 1125	0.004800 Head
MD827 1176	0.004800 Head
OC686 1176	0.004800 Head
OB641 1212	0.004800 Head
MF715 1206	0.004800 Head
SO136 1251	0.004800 Head
MU864 1229	0.004800 Head
OP994 1212	0.004800 Head
SD675 1223	0.004800 Head
OC675 1205	0.004800 Head
TS436 1171	0.004800 Head
RP857 1240	0.004800 Head
NA042 1231	0.004800 Head
NX936 1182	0.004800 Head
NX963 1225	0.004800 Head
QJ859 1163	0.004800 Head
MU446 1138	0.004800 Head
SM299 1199	0.004800 Head
NR316 1221	0.004800 Head
OV825 1198	0.004800 Head
OI427 1184	0.004800 Head
LX015 1091	0.004800 Head
OI428 1235	0.004800 Head
MH932 1231	0.004800 Head
MB330 968	0.004800 Head
MZ805 1270	0.004800 Head
QU857 1149	0.004800 Head
TW433 1189	0.004800 Head
SQ655 1185	0.004800 Head
VK687 1236	0.004800 Head
QR934 1247	0.004800 Head
KK180 1198	0.004800 Head
QU899 1241	0.004800 Head
NY962 1234	0.004800 Head
TN652 1241	0.004800 Head
QM581 1229	0.004800 Head
TV731 1241	0.004800 Head
LL248 1258	0.004800 Head
MH916 1183	0.004800 Head
QY792 1232	0.004800 Head
TB739 1194	0.004800 Head
OS007 1162	0.004800 Head
LH692 1218	0.004800 Head
MH910 1217	0.004800 Head
LF763 1244	0.004800 Head
OP993 1169	0.004800 Head
OH798 1214	0.004800 Head
NX928 1224	0.004800 Head
QU650 1196	0.004800 Head
LV472 1170	0.004800 Head
QR779 1257	0.004800 Head
LX027 1187	0.004800 Head
RS387 1214	0.004800 Head
MJ315 1155	0.004800 Head
VK695 1210	0.004800 Head
NX943 1181	0.004800 Head
RP078 1092	0.004800 Head
LU610 1199	0.004800 Head
LF773 1279	0.004800 Head
TR916 1219	0.004800 Head
MB383 1125	0.004800 Head
RF217 1108	0.004800 Head
MU417 1199	0.004800 Head
RP827 1202	0.004800 Head
RH245 1193	0.004800 Head
QJ918 1205	0.004800 Head
TH720 1234	0.004800 Head
MM300 1243	0.004800 Head
QY793 1237	0.004800 Head
TB706 1238	0.004800 Head
RS189 1187	0.004800 Head
RH428 1248	0.004800 Head
RP876 1198	0.004800 Head
LF832 1203	0.004800 Head
OC690 1191	0.004800 Head
TF090 1246	0.004800 Head
RS398 1261	0.004800 Head
LH619 1188	0.004800 Head
ND423 1188	0.004800 Head
QU863 1180	0.004800 Head
QV345 1196	0.004800 Head
LF841 1177	0.004800 Head
NE945 1200	0.004800 Head
LA766 1295	0.004800 Head
OI434 1231	0.004800 Head
RC155 1178	0.004800 Head
RC154 1281	0.004800 Head
ND449 1199	0.004800 Head
MP238 1176	0.004800 Head
OH757 1209	0.004800 Head
MH940 1249	0.004800 Head
NX084 1236	0.004800 Head
TT486 1162	0.004800 Head
MT786 1212	0.004800 Head
MM333 1220	0.004800 Head
MJ398 1201	0.004800 Head
LX022 1190	0.004800 Head
RS159 1193	0.004800 Head
RH236 1256	0.004800 Head
RF216 1232	0.004800 Head
QJ642 1220	0.004800 Head
QY808 1276	0.004800 Head
MJ309 1024	0.004800 Head
RP831 1216	0.004800 Head
NA146 1202	0.004800 Head
MU862 1164	0.004800 Head
LF831 1241	0.004800 Head
RH407 1201	0.004800 Head
MU487 1200	0.004800 Head
TV716 1219	0.004800 Head
NQ932 1218	0.004800 Head
SN758 1209	0.004800 Head
NX901 1228	0.004800 Head
SD205 1236	0.004800 Head
RS346 1227	0.004800 Head
OB652 1201	0.004800 Head
SN712 1293	0.004800 Head
QV330 1218	0.004800 Head
LF695 1198	0.004800 Head
LU231 1226	0.004800 Head
NK117 1209	0.004800 Head
MQ795 1205	0.004800 Head
TV717 1212	0.004800 Head
RP829 1182	0.004800 Head
SD208 1198	0.004800 Head
SO896 1216	0.004800 Head
NY960 1253	0.004800 Head
ND414 1259	0.004800 Head
OH564 1234	0.004800 Head
LH648 1226	0.004800 Head
NA211 1242	0.004800 Head
SV721 1197	0.004800 Head
LF774 1224	0.004800 Head
TG456 1222	0.004800 Head
TS407 1219	0.004800 Head
NR311 1226	0.004800 Head
SN770 1192	0.004800 Head
NU930 1210	0.004800 Head
QY815 1183	0.004800 Head
NK257 1248	0.004800 Head
MJ320 1203	0.004800 Head
LU222 1245	0.004800 Head
RR001 1228	0.004800 Head
RP819 1259	0.004800 Head
SV702 1239	0.004800 Head
MY554 1240	0.004800 Head
RR812 1224	0.004800 Head
MU418 1210	0.004800 Head
OH775 1228	0.004800 Head
MM339 1245	0.004800 Head
OM042 1228	0.004800 Head
RH017 1277	0.004800 Head
OP902 1210	0.004800 Head
MH936 1211	0.004800 Head
OP906 1226	0.004800 Head
OI436 1249	0.004800 Head
QU902 1218	0.004800 Head
SK881 1243	0.004800 Head
MD880 1214	0.004800 Head
NM349 1215	0.004800 Head
MP275 1204	0.004800 Head
WH324 1217	0.004800 Head
QU878 1197	0.004800 Head
OO021 1185	0.004800 Head
OV966 1224	0.004800 Head
NX975 1243	0.004800 Head
VL921 1239	0.004800 Head
NK129 1216	0.004800 Head
LK241 1209	0.004800 Head
RS324 1201	0.004800 Head
MM273 1276	0.004800 Head
OS013 1194	0.004800 Head
RS474 1193	0.004800 Head
MH926 1221	0.004800 Head
MT772 1236	0.004800 Head
MJ396 1224	0.004800 Head
OC555 1218	0.004800 Head
OD998 1248	0.004800 Head
RP862 1210	0.004800 Head
MB374 1214	0.004800 Head
LX096 1228	0.004800 Head
RH209 1148	0.004800 Head
SD691 1248	0.004800 Head
TR936 1229	0.004800 Head
RV903 1272	0.004800 Head
SQ626 1264	0.004800 Head
SK897 1233	0.004800 Head
SK899 1296	0.004800 Head
TD201 1218	0.004800 Head
RH227 1186	0.004800 Head
RH033 1253	0.004800 Head
LM280 1200	0.004800 Head
OI420 1234	0.004800 Head
OB832 1274	0.004800 Head
LF473 1214	0.004800 Head
LU924 1203	0.004800 Head
QU792 1129	0.004800 Head
OH786 1240	0.004800 Head
TB724 1238	0.004800 Head
NK179 1233	0.004800 Head
QW317 1212	0.004800 Head
NF834 1242	0.004800 Head
MJ307 1238	0.004800 Head
LH322 1233	0.004800 Head
MC281 1233	0.004800 Head
OP995 1207	0.004800 Head
LX061 1210	0.004800 Head
OV925 1210	0.004800 Head
NK239 1198	0.004800 Head
TD212 1204	0.004800 Head
TS409 1249	0.004800 Head
MJ331 1177	0.004800 Head
SQ632 1166	0.004800 Head
KT165 1229	0.004800 Head
MY909 1227	0.004800 Head
SQ624 1225	0.004800 Head
MK392 1209	0.004800 Head
QR950 1228	0.004800 Head
NX052 1214	0.004800 Head
SD661 1210	0.004800 Head
OO098 1206	0.004800 Head
TF260 1244	0.004800 Head
NF843 1256	0.004800 Head
NV005 1214	0.004800 Head
NN998 1273	0.004800 Head
ON224 1224	0.004800 Head
LM260 1242	0.004800 Head
RH224 1213	0.004800 Head
MZ832 1210	0.004800 Head
NA022 1213	0.004800 Head
RR006 1241	0.004800 Head
MP240 1252	0.004800 Head
TR909 1225	0.004800 Head
MH917 1233	0.004800 Head
NR348 1239	0.004800 Head
MH945 1234	0.004800 Head
MJ318 1227	0.004800 Head
SK875 1233	0.004800 Head
WH352 1230	0.004800 Head
LM290 1232	0.004800 Head
SM255 1193	0.004800 Head
SW244 1257	0.004800 Head
LU941 1201	0.004800 Head
SV722 1214	0.004800 Head
NG010 1138	0.004800 Head
MU489 1194	0.004800 Head
QU834 1322	0.004800 Head
QP964 1258	0.004800 Head
RR837 1225	0.004800 Head
MF531 1217	0.004800 Head
SW269 1147	0.004800 Head
MZ837 1174	0.004800 Head
MD839 1219	0.004800 Head
NI418 1218	0.004800 Head
RS165 1239	0.004800 Head
LF845 1244	0.004800 Head
NK104 1229	0.004800 Head
TG724 1218	0.004800 Head
QJ332 1153	0.004800 Head
QW327 1228	0.004800 Head
SW286 1176	0.004800 Head
LZ071 1185	0.004800 Head
QM585 1237	0.004800 Head
NX544 1215	0.004800 Head
TH714 1254	0.004800 Head
TX409 1129	0.004800 Head
TB072 1197	0.004800 Head
NA083 1302	0.004800 Head
MZ839 1232	0.004800 Head
OM062 1193	0.004800 Head
NA082 1285	0.004800 Head
QU856 1186	0.004800 Head
OD908 1225	0.004800 Head
LM286 1235	0.004800 Head
QU748 1236	0.004800 Head
OB601 1292	0.004800 Head
RH267 1246	0.004800 Head
MD881 1233	0.004800 Head
NA076 1258	0.004800 Head
QJ323 1205	0.004800 Head
RF927 1259	0.004800 Head
NK241 1201	0.004800 Head
RS296 1241	0.004800 Head
QR947 1207	0.004800 Head
MN765 1230	0.004800 Head
MH911 1217	0.004800 Head
OM081 1205	0.004800 Head
SD201 1147	0.004800 Head
MD746 1241	0.004800 Head
NA077 1209	0.004800 Head
IG082 1205	0.004800 Head
RL700 1214	0.004800 Head
SD682 1236	0.004800 Head
MZ831 1246	0.004800 Head
OH708 1252	0.004800 Head
TA204 1252	0.004800 Head
OD978 1211	0.004800 Head
TB100 1166	0.004800 Head
QW393 1246	0.004800 Head
MH929 1226	0.004800 Head
OM013 1166	0.004800 Head
RS355 1217	0.004800 Head
SW255 1227	0.004800 Head
QZ560 1221	0.004800 Head
MV387 1228	0.004800 Head
LK244 1229	0.004800 Head
OH727 1257	0.004800 Head
RH411 1174	0.004800 Head
RH004 1200	0.004800 Head
RS205 1218	0.004800 Head
MN748 1221	0.004800 Head
MZ810 937	0.004800 Head
SE932 1213	0.004800 Head
OH726 1149	0.004800 Head
LK213 1238	0.004800 Head
LM281 1236	0.004800 Head
RQ991 1219	0.004800 Head
SW253 1239	0.004800 Head
LK211 1217	0.004800 Head
LU887 1237	0.004800 Head
NR319 1097	0.004800 Head
QW321 1226	0.004800 Head
LK232 1222	0.004800 Head
TA230 1073	0.004800 Head
LX017 1235	0.004800 Head
MZ844 1193	0.004800 Head
SM269 1208	0.004800 Head
RC167 1231	0.004800 Head
SK895 1227	0.004800 Head
RQ996 1237	0.004800 Head
MH924 1235	0.004800 Head
MC220 1108	0.004800 Head
QS588 1229	0.004800 Head
RS323 1105	0.004800 Head
SO927 1227	0.004800 Head
SQ650 1224	0.004800 Head
LL391 1247	0.004800 Head
RH237 1227	0.004800 Head
SN395 1244	0.004800 Head
RH242 1194	0.004800 Head
RQ989 1282	0.004800 Head
QM579 1234	0.004800 Head
NQ979 1224	0.004800 Head
OH740 1224	0.004800 Head
NI411 1227	0.004800 Head
OM001 1203	0.004800 Head
OM021 1219	0.004800 Head
LU939 1174	0.004800 Head
RP082 1211	0.004800 Head
TD209 1171	0.004800 Head
TH696 1195	0.004800 Head
TX410 1196	0.004800 Head
SM253 1226	0.004800 Head
RL617 1226	0.004800 Head
MZ828 1222	0.004800 Head
MH934 1146	0.004800 Head
QW306 1201	0.004800 Head
LU925 1176	0.004800 Head
NG012 1184	0.004800 Head
OS003 1203	0.004800 Head
OS009 1222	0.004800 Head
LX095 1153	0.004800 Head
OS010 1257	0.004800 Head
LM293 1264	0.004800 Head
OH748 1118	0.004800 Head
TD217 1132	0.004800 Head
TC629 1209	0.004800 Head
NQ949 1210	0.004800 Head
NG018 1084	0.004800 Head
LN662 1174	0.004800 Head
QW309 1215	0.004800 Head
LU933 1206	0.004800 Head
NR322 1227	0.004800 Head
OM073 1120	0.004800 Head
LN656 1218	0.004800 Head
TH723 1200	0.004800 Head
QW313 1228	0.004800 Head
TH718 1178	0.004800 Head
RH041 1185	0.004800 Head
QU631 1176	0.004800 Head
SM276 1118	0.004800 Head
MZ801 1210	0.004800 Head
SV708 1213	0.004800 Head
TJ997 1222	0.004800 Head
QY817 1211	0.004800 Head
NK273 1226	0.004800 Head
NK275 1235	0.004800 Head
OI468 1223	0.004800 Head
MC274 1223	0.004800 Head
OH749 1184	0.004800 Head
NA061 1204	0.004800 Head
QM566 1204	0.004800 Head
SM294 1162	0.004800 Head
NR312 1171	0.004800 Head
RP764 1142	0.004800 Head
TH700 1137	0.004800 Head
LK239 1121	0.004800 Head
OS012 1116	0.004800 Head
SK900 1104	0.004800 Head
RA797 1139	0.004800 Head
QU648 1089	0.004800 Head
ON246 1217	0.004800 Head
QR915 1081	0.004800 Head
QZ558 1236	0.004800 Head
MD748 1221	0.004800 Head
RS264 1214	0.004800 Head
MM255 1205	0.004800 Head
NR325 1149	0.004800 Head
TC634 1155	0.004800 Head
MT789 1120	0.004800 Head
KT169 1190	0.004800 Head
SD673 1116	0.004800 Head
SD657 1137	0.004800 Head
MC282 1135	0.004800 Head
MZ888 1138	0.004800 Head
QJ322 1201	0.004800 Head
OV898 1192	0.004800 Head
MU488 1202	0.004800 Head
MP279 1233	0.004800 Head
QW302 1233	0.004800 Head
TD216 1230	0.004800 Head
TF257 1214	0.004800 Head
KT173 1230	0.004800 Head
SW299 1140	0.004800 Head
NV024 1194	0.004800 Head
LK245 1199	0.004800 Head
QJ385 1186	0.004800 Head
QR948 1208	0.004800 Head
OS022 1220	0.004800 Head
NR330 1137	0.004800 Head
TX407 1118	0.004800 Head
QU836 1255	0.004800 Head
QZ586 984	0.004800 Head
MZ835 1216	0.004800 Head
LK226 1096	0.004800 Head
QW307 1223	0.004800 Head
MC280 1128	0.004800 Head
QW328 1125	0.004800 Head
TG171 1193	0.004800 Head
NG022 1195	0.004800 Head
TN417 1056	0.004800 Head
QJ338 1191	0.004800 Head
TX408 1073	0.004800 Head
MV376 1202	0.004800 Head
QZ581 1087	0.004800 Head
RH222 1228	0.004800 Head
SW295 1118	0.004800 Head
SO120 1178	0.004800 Head
OH738 1118	0.004800 Head
RB034 1227	0.004800 Head
RH221 1098	0.004800 Head
OM047 1166	0.004800 Head
NR341 1053	0.004800 Head
SO868 1217	0.004800 Head
OM034 1190	0.004800 Head
TX411 1207	0.004800 Head
OH741 1085	0.004800 Head
LK225 1242	0.004800 Head
RR005 1229	0.004800 Head
NI478 1123	0.004800 Head
QZ563 1266	0.004800 Head
TD220 1245	0.004800 Head
QS586 1251	0.004800 Head
RP760 1231	0.004800 Head
QS579 1206	0.004800 Head
SQ638 1068	0.004800 Head
SW300 1269	0.004800 Head
MZ822 1208	0.004800 Head
SM288 985	0.004800 Head
RQ992 1221	0.004800 Head
OF275 1084	0.004800 Head
QU634 1102	0.004800 Head
NU968 1179	0.004800 Head
MT769 1237	0.004800 Head
LK236 1120	0.004800 Head
QS559 1222	0.004800 Head
LK235 1101	0.004800 Head
MD749 1249	0.004800 Head
SO154 1050	0.004800 Head
TG712 1054	0.004800 Head
OO001 1216	0.004800 Head
RL616 1122	0.004800 Head
LF843 1200	0.004800 Head
TJ998 1078	0.004800 Head
KT177 1212	0.004800 Head
LH341 967	0.004800 Head
SD665 1104	0.004800 Head
ON226 1159	0.004800 Head
KW734 1198	0.004800 Head
QR918 1133	0.004800 Head
SD681 1083	0.004800 Head
RQ994 1201	0.004800 Head
NG016 1006	0.004800 Head
MH919 1041	0.004800 Head
OH702 1030	0.004800 Head
TC670 1237	0.004800 Head
QU638 1058	0.004800 Head
SM277 1011	0.004800 Head
OH744 1193	0.004800 Head
NR335 1078	0.004800 Head
NM305 987	0.004800 Head
RQ981 1069	0.004800 Head
LK227 913	0.004800 Head
LF475 1193	0.004800 Head
TB002 1074	0.004800 Head
MP235 1026	0.004800 Head
SW289 1013	0.004800 Head
SQ606 1002	0.004800 Head
TG718 1028	0.004800 Head
SM262 1107	0.004800 Head
LZ057 1010	0.004800 Head
OH769 1218	0.004800 Head
NG062 989	0.004800 Head
LW562 1046	0.004800 Head
MH912 1081	0.004800 Head
OB648 1167	0.004800 Head
NY957 1192	0.004800 Head
SG393 1105	0.004800 Head
LK221 1245	0.004800 Head
SK874 1208	0.004800 Head
MZ819 1212	0.004800 Head
LK214 1088	0.004800 Head
RS428 1193	0.004800 Head
NG021 1169	0.004800 Head
NG020 1195	0.004800 Head
LZ508 1056	0.004800 Head
MB348 1088	0.004800 Head
LK215 1089	0.004800 Head
MN761 1218	0.004800 Head
RQ993 1010	0.004800 Head
NR317 1030	0.004800 Head
MH920 1025	0.004800 Head
MC265 1028	0.004800 Head
RR805 999	0.004800 Head
TE155 1095	0.004800 Head
QL463 1107	0.004800 Head
OB842 1076	0.004800 Head
MK363 1175	0.004800 Head
MM283 1033	0.004800 Head
TH716 1028	0.004800 Head
RH050 1015	0.004800 Head
MC269 1073	0.004800 Head
RQ987 1080	0.004800 Head
QZ594 1040	0.004800 Head
QJ321 1044	0.004800 Head
TC636 985	0.004800 Head
KW736 1076	0.004800 Head
SD654 1022	0.004800 Head
QV143 1084	0.004800 Head
QY233 1221	0.004800 Head
KW742 1210	0.004800 Head
RH211 1053	0.004800 Head
NX547 1120	0.004800 Head
LU880 1026	0.004800 Head
NK274 1085	0.004800 Head
RH243 1133	0.004800 Head
OM002 1131	0.004800 Head
OH711 957	0.004800 Head
SQ602 1034	0.004800 Head
LK237 1077	0.004800 Head
TJ993 1059	0.004800 Head
QY263 1205	0.004800 Head
OH715 1089	0.004800 Head
TS408 1200	0.004800 Head
KW717 986	0.004800 Head
RA789 999	0.004800 Head
MH902 1060	0.004800 Head
RR825 1062	0.004800 Head
LW554 1061	0.004800 Head
TA267 1058	0.004800 Head
MC267 1108	0.004800 Head
OV293 1017	0.004800 Head
OB628 961	0.004800 Head
RP786 1023	0.004800 Head
LL269 1132	0.004800 Head
OH739 1101	0.004800 Head
MJ375 1094	0.004800 Head
RQ035 893	0.004800 Head
QN986 1019	0.004800 Head
NG013 1035	0.004800 Head
NT704 1056	0.004800 Head
RS484 1035	0.004800 Head
QW318 1036	0.004800 Head
LU209 1044	0.004800 Head
LX094 1031	0.004800 Head
QR776 1043	0.004800 Head
QV115 1048	0.004800 Head
QS552 1117	0.004800 Head
RQ995 1025	0.004800 Head
MZ809 1098	0.004800 Head
SD662 1112	0.004800 Head
SG376 1089	0.004800 Head
QW312 1042	0.004800 Head
QQ598 1227	0.004800 Head
TK013 1188	0.004800 Head
KT167 1025	0.004800 Head
NX007 1025	0.004800 Head
RQ046 1023	0.004800 Head
QZ554 960	0.004800 Head
KW741 1002	0.004800 Head
SM295 1066	0.004800 Head
SE001 1195	0.004800 Head
LL212 1180	0.004800 Head
NG005 1072	0.004800 Head
OB841 1034	0.004800 Head
QW323 1034	0.004800 Head
NR306 1021	0.004800 Head
MZ802 1030	0.004800 Head
TW174 1083	0.004800 Head
OB834 1089	0.004800 Head
NG014 1019	0.004800 Head
LW546 1015	0.004800 Head
MV384 1059	0.004800 Head
QZ555 1010	0.004800 Head
OS001 1154	0.004800 Head
NQ969 1043	0.004800 Head
QR941 994	0.004800 Head
OB845 975	0.004800 Head
SY300 992	0.004800 Head
OB849 968	0.004800 Head
KW738 855	0.004800 Head
TH407 1068	0.004800 Head
QS590 1083	0.004800 Head
RR836 1036	0.004800 Head
TD221 980	0.004800 Head
QP926 983	0.004800 Head
QR905 969	0.004800 Head
SE062 1015	0.004800 Head
TC641 1151	0.004800 Head
QK096 997	0.004800 Head
KT174 1004	0.004800 Head
QR901 987	0.004800 Head
OB829 856	0.004800 Head
OB831 997	0.004800 Head
MH913 1042	0.004800 Head
RH215 1050	0.004800 Head
LK209 1028	0.004800 Head
TD202 1035	0.004800 Head
SQ615 1075	0.004800 Head
OD986 1073	0.004800 Head
MJ054 986	0.004800 Head
LU899 999	0.004800 Head
OD990 1042	0.004800 Head
OS018 1067	0.004800 Head
OH720 1029	0.004800 Head
NR304 1080	0.004800 Head
MC286 986	0.004800 Head
MD367 1031	0.004800 Head
TM053 1010	0.004800 Head
SK883 973	0.004800 Head
OD989 1111	0.004800 Head
MH948 1050	0.004800 Head
RA733 1138	0.004800 Head
NN981 1040	0.004800 Head
QV102 1084	0.004800 Head
QV147 1044	0.004800 Head
OF249 1026	0.004800 Head
NA001 1077	0.004800 Head
NX542 1077	0.004800 Head
NB951 1068	0.004800 Head
QJ302 1031	0.004800 Head
LL283 1008	0.004800 Head
LW549 1074	0.004800 Head
LK206 1080	0.004800 Head
SE887 983	0.004800 Head
QV109 1031	0.004800 Head
NI434 976	0.004800 Head
OP609 1032	0.004800 Head
PG973 1061	0.004800 Head
TG710 1065	0.004800 Head
QS578 1063	0.004800 Head
MV344 1054	0.004800 Head
TT490 1087	0.004800 Head
OB848 998	0.004800 Head
QJ372 1028	0.004800 Head
KQ844 1101	0.004800 Head
NA041 1073	0.004800 Head
MZ824 1083	0.004800 Head
ON238 1030	0.004800 Head
QV104 1085	0.004800 Head
NL888 1051	0.004800 Head
KU910 996	0.004800 Head
RH220 1134	0.004800 Head
NG007 1020	0.004800 Head
QM582 1108	0.004800 Head
QM568 1051	0.004800 Head
QR914 1071	0.004800 Head
RP778 1011	0.004800 Head
QS553 1026	0.004800 Head
RP773 1088	0.004800 Head
RH216 1085	0.004800 Head
RS173 1026	0.004800 Head
RA792 1074	0.004800 Head
QV142 983	0.004800 Head
TD210 1085	0.004800 Head
SM268 1045	0.004800 Head
QS598 1057	0.004800 Head
KW732 1083	0.004800 Head
LL238 1067	0.004800 Head
QZ584 1093	0.004800 Head
RP759 1078	0.004800 Head
QQ587 1003	0.004800 Head
KW730 1064	0.004800 Head
OS524 1060	0.004800 Head
SQ627 1062	0.004800 Head
NR338 988	0.004800 Head
SO869 1075	0.004800 Head
TN418 1012	0.004800 Head
RS107 1068	0.004800 Head
NQ915 1065	0.004800 Head
RQ064 1077	0.004800 Head
OS024 1059	0.004800 Head
LU938 1097	0.004800 Head
SW266 1058	0.004800 Head
NR345 1040	0.004800 Head
NQ918 1007	0.004800 Head
RG059 1074	0.004800 Head
SE904 1011	0.004800 Head
LW535 1059	0.004800 Head
MQ488 1075	0.004800 Head
LW526 1083	0.004800 Head
LM271 1079	0.004800 Head
OM066 1076	0.004800 Head
ON234 1066	0.004800 Head
NQ976 1064	0.004800 Head
RH044 1073	0.004800 Head
OS014 1093	0.004800 Head
NG058 1033	0.004800 Head
OI444 1022	0.004800 Head
QS556 1112	0.004800 Head
RH219 1095	0.004800 Head
LW537 1084	0.004800 Head
RP772 1048	0.004800 Head
TM035 1067	0.004800 Head
QV145 1086	0.004800 Head
QV144 1080	0.004800 Head
OH745 1081	0.004800 Head
MK340 1064	0.004800 Head
LL418 1091	0.004800 Head
TE187 1043	0.004800 Head
LU203 1043	0.004800 Head
MZ816 1067	0.004800 Head
LU936 1055	0.004800 Head
MV391 1059	0.004800 Head
RH218 1092	0.004800 Head
QV111 1038	0.004800 Head
OR998 999	0.004800 Head
KW729 1048	0.004800 Head
RH225 1070	0.004800 Head
NI444 1074	0.004800 Head
RS446 1048	0.004800 Head
SE931 1070	0.004800 Head
LU937 1062	0.004800 Head
OU049 1004	0.004800 Head
LU217 1040	0.004800 Head
MV385 1065	0.004800 Head
TD219 1069	0.004800 Head
Beaver_Bk1 97292.73	0.0000000 Streamflow
Beaver_Bk2 463437.69	0.0000000 Streamflow
Yellow_Riv1 2452200.57	4.0780e-06 Streamflow
Yellow_Riv2 3877319.14	2.5791e-06 Streamflow
Yellow_Riv3 7851881.87	2.5472e-06 Streamflow
Crystal_Bk 1057558.33	9.4557e-06 Streamflow
Sawyer_Ck_Trib 417564.8	0.0000000 Streamflow
S_Fk_Clam_Riv 497563.69	2.0098e-05 Streamflow
Sawyer_1 13298.78	0.0000000 Streamflow
Sawyer_2 627946.24	0.0000000 Streamflow
Bashaw_Bk 864000.00	1.1574e-05 Streamflow
Shell_Lake 1218.8	2.000000 Lakestage
* model command line
shell9c.bat
* model input/output
Shell9c2.tpl Shell9c.DAT
Shell9c.ins Shell9c.XTR
