pcf
* control data
 restart regularisation
436     577       4    5225      14
10  9  single  point  1  0  0
1.000000e+001  2.000000e+000  3.000000e-001  1.000000e-002  7 999
1.000000e+001  1.000000e+001  1.000000e-003
1.000000e-001 noaui
0  1.000000e-002  3  3  1.000000e-002  3
0  0  0
* parameter groups
Kp     relative   1.000000e-002  0.000000e+000  switch  2.000000e+000  parabolic
Kz     relative   1.000000e-002  0.000000e+000  switch  2.000000e+000  parabolic
Rech   relative   1.000000e-002  0.000000e+000  switch  2.000000e+000  parabolic
Leakance   relative   1.000000e-002  0.000000e+000  switch  2.000000e+000  parabolic
* parameter data
kx3  log  factor    1.629990      5.000000e-002  1.000000e+001    kp   1.0   0.0 1
kx4  log  factor    22.59976      5.000000e+000  5.000000e+001    kp   1.0   0.0 1
kz4  log  factor    1.655262      5.000000e-002  1.000000e+001    kz   1.0   0.0 1
shellsandl log factor   2.9179202E-03  1.000000e-003  1.000000e-001    leakance   1.0   0.0 1
shellmuckl tied factor   2.9179202E-03  5.000000e-004  1.000000e-001    leakance   1.0   0.0 1
smallsandl tied factor   2.9179202E-03  1.000000e-003  1.000000e-001    leakance   1.0   0.0 1
smallmuckl tied factor   2.9179202E-03  5.000000e-004  1.000000e-001    leakance   1.0   0.0 1
kv_sfr     log factor    2.000000      5.000000e-004  2.000000e-000    leakance   1.0   0.0 1
r7   none  factor    1.739938      1.000000e-004  1.000000e+003    rech   0.001   0.0 1
precip fixed factor   6.0802282E-03  1.000000e-004  1.000000e+003    rech   1.0   0.0 1
evap  fixed  factor   4.8938261E-03  1.000000e-004  1.000000e+003    rech   1.0   0.0 1
kzkv3p1  log  factor   1.7406973E-03  1.000000e-003  1.000000e-001  kz  1.0 0.0  1
kzkv3p2  log  factor   1.5490959E-03  1.000000e-003  1.000000e-001  kz  1.0 0.0  1
kzkv3p3  log  factor   1.6236329E-03  1.000000e-003  1.000000e-001  kz  1.0 0.0  1
kzkv3p4  log  factor   1.6551087E-03  1.000000e-003  1.000000e-001  kz  1.0 0.0  1
kzkv3p5  log  factor   1.6854320E-03  1.000000e-003  1.000000e-001  kz  1.0 0.0  1
kzkv3p6  log  factor   1.8039567E-03  1.000000e-003  1.000000e-001  kz  1.0 0.0  1
kzkv3p7  log  factor   1.7010880E-03  1.000000e-003  1.000000e-001  kz  1.0 0.0  1
kzkv3p8  log  factor   1.5221781E-03  1.000000e-003  1.000000e-001  kz  1.0 0.0  1
kzkv3p9  log  factor   1.5141549E-03  1.000000e-003  1.000000e-001  kz  1.0 0.0  1
kzkv3p10  log  factor   1.0000000E-03  1.000000e-003  1.000000e-001  kz  1.0 0.0  1
kzkv3p11  log  factor   1.3213686E-03  1.000000e-003  1.000000e-001  kz  1.0 0.0  1
kzkv3p12  log  factor   1.6513689E-03  1.000000e-003  1.000000e-001  kz  1.0 0.0  1
kzkv3p13  log  factor   1.7140402E-03  1.000000e-003  1.000000e-001  kz  1.0 0.0  1
kzkv3p14  log  factor   1.7437046E-03  1.000000e-003  1.000000e-001  kz  1.0 0.0  1
kzkv3p15  log  factor   1.6424973E-03  1.000000e-003  1.000000e-001  kz  1.0 0.0  1
kzkv3p16  log  factor   1.7154427E-03  1.000000e-003  1.000000e-001  kz  1.0 0.0  1
kzkv3p17  log  factor   1.3230033E-03  1.000000e-003  1.000000e-001  kz  1.0 0.0  1
kzkv3p18  log  factor   3.3319304E-03  1.000000e-003  1.000000e-001  kz  1.0 0.0  1
kzkv3p19  log  factor   2.1074811E-03  1.000000e-003  1.000000e-001  kz  1.0 0.0  1
kzkv3p20  log  factor   1.0000000E-03  1.000000e-003  1.000000e-001  kz  1.0 0.0  1
kzkv3p21  log  factor   1.3978573E-03  1.000000e-003  1.000000e-001  kz  1.0 0.0  1
kzkv3p22  log  factor   1.8163945E-03  1.000000e-003  1.000000e-001  kz  1.0 0.0  1
kzkv3p23  log  factor   1.7567088E-03  1.000000e-003  1.000000e-001  kz  1.0 0.0  1
kzkv3p24  log  factor   1.7183498E-03  1.000000e-003  1.000000e-001  kz  1.0 0.0  1
kzkv3p25  log  factor   1.3212732E-03  1.000000e-003  1.000000e-001  kz  1.0 0.0  1
kzkv3p26  log  factor   1.3857714E-03  1.000000e-003  1.000000e-001  kz  1.0 0.0  1
kzkv3p27  log  factor   1.0749895E-03  1.000000e-003  1.000000e-001  kz  1.0 0.0  1
kzkv3p28  log  factor   5.9578013E-03  1.000000e-003  1.000000e-001  kz  1.0 0.0  1
kzkv3p29  log  factor   6.9805069E-03  1.000000e-003  1.000000e-001  kz  1.0 0.0  1
kzkv3p30  log  factor   2.9333075E-03  1.000000e-003  1.000000e-001  kz  1.0 0.0  1
kzkv3p31  log  factor   2.0696100E-03  1.000000e-003  1.000000e-001  kz  1.0 0.0  1
kzkv3p32  log  factor   1.9459268E-03  1.000000e-003  1.000000e-001  kz  1.0 0.0  1
kzkv3p33  log  factor   1.7326144E-03  1.000000e-003  1.000000e-001  kz  1.0 0.0  1
kzkv3p34  log  factor   1.7170929E-03  1.000000e-003  1.000000e-001  kz  1.0 0.0  1
kzkv3p35  log  factor   1.1851032E-03  1.000000e-003  1.000000e-001  kz  1.0 0.0  1
kzkv3p36  log  factor   1.3274247E-03  1.000000e-003  1.000000e-001  kz  1.0 0.0  1
kzkv3p37  log  factor   1.0000000E-03  1.000000e-003  1.000000e-001  kz  1.0 0.0  1
kzkv3p38  log  factor   3.1806972E-02  1.000000e-003  1.000000e-001  kz  1.0 0.0  1
kzkv3p39  log  factor   2.1891696E-02  1.000000e-003  1.000000e-001  kz  1.0 0.0  1
kzkv3p40  log  factor   5.4701649E-03  1.000000e-003  1.000000e-001  kz  1.0 0.0  1
kzkv3p41  log  factor   4.6503231E-03  1.000000e-003  1.000000e-001  kz  1.0 0.0  1
kzkv3p42  log  factor   2.3978933E-03  1.000000e-003  1.000000e-001  kz  1.0 0.0  1
kzkv3p43  log  factor   1.7715303E-03  1.000000e-003  1.000000e-001  kz  1.0 0.0  1
kzkv3p44  log  factor   1.7149825E-03  1.000000e-003  1.000000e-001  kz  1.0 0.0  1
kzkv3p45  log  factor   1.3929813E-03  1.000000e-003  1.000000e-001  kz  1.0 0.0  1
kzkv3p46  log  factor   1.3441496E-03  1.000000e-003  1.000000e-001  kz  1.0 0.0  1
kzkv3p47  log  factor   1.0000000E-03  1.000000e-003  1.000000e-001  kz  1.0 0.0  1
kzkv3p48  log  factor   1.9467232E-03  1.000000e-003  1.000000e-001  kz  1.0 0.0  1
kzkv3p49  log  factor   1.3035334E-02  1.000000e-003  1.000000e-001  kz  1.0 0.0  1
kzkv3p50  log  factor   8.8656342E-03  1.000000e-003  1.000000e-001  kz  1.0 0.0  1
kzkv3p51  log  factor   2.6646353E-03  1.000000e-003  1.000000e-001  kz  1.0 0.0  1
kzkv3p52  log  factor   2.0075739E-03  1.000000e-003  1.000000e-001  kz  1.0 0.0  1
kzkv3p53  log  factor   1.9307459E-03  1.000000e-003  1.000000e-001  kz  1.0 0.0  1
kzkv3p54  log  factor   1.7346950E-03  1.000000e-003  1.000000e-001  kz  1.0 0.0  1
kzkv3p55  log  factor   1.6580014E-03  1.000000e-003  1.000000e-001  kz  1.0 0.0  1
kzkv3p56  log  factor   1.4886571E-03  1.000000e-003  1.000000e-001  kz  1.0 0.0  1
kzkv3p57  log  factor   1.5207075E-03  1.000000e-003  1.000000e-001  kz  1.0 0.0  1
kzkv3p58  log  factor   1.8747976E-03  1.000000e-003  1.000000e-001  kz  1.0 0.0  1
kzkv3p59  log  factor   4.9679609E-03  1.000000e-003  1.000000e-001  kz  1.0 0.0  1
kzkv3p60  log  factor   3.0476995E-03  1.000000e-003  1.000000e-001  kz  1.0 0.0  1
kzkv3p61  log  factor   1.8427068E-03  1.000000e-003  1.000000e-001  kz  1.0 0.0  1
kzkv3p62  log  factor   1.8238557E-03  1.000000e-003  1.000000e-001  kz  1.0 0.0  1
kzkv3p63  log  factor   1.8374028E-03  1.000000e-003  1.000000e-001  kz  1.0 0.0  1
kzkv3p64  log  factor   1.7287127E-03  1.000000e-003  1.000000e-001  kz  1.0 0.0  1
kzkv3p65  log  factor   1.8176877E-03  1.000000e-003  1.000000e-001  kz  1.0 0.0  1
kzkv3p66  log  factor   1.6557630E-03  1.000000e-003  1.000000e-001  kz  1.0 0.0  1
kzkv3p67  log  factor   1.6931330E-03  1.000000e-003  1.000000e-001  kz  1.0 0.0  1
kzkv3p68  log  factor   2.0087474E-03  1.000000e-003  1.000000e-001  kz  1.0 0.0  1
kzkv3p69  log  factor   1.7925931E-03  1.000000e-003  1.000000e-001  kz  1.0 0.0  1
kzkv3p70  log  factor   1.8151001E-03  1.000000e-003  1.000000e-001  kz  1.0 0.0  1
kzkv3p71  log  factor   1.7211502E-03  1.000000e-003  1.000000e-001  kz  1.0 0.0  1
kzkv3p72  log  factor   1.7879935E-03  1.000000e-003  1.000000e-001  kz  1.0 0.0  1
kzkv3p73  log  factor   1.8286766E-03  1.000000e-003  1.000000e-001  kz  1.0 0.0  1
kzkv3p74  log  factor   1.8270249E-03  1.000000e-003  1.000000e-001  kz  1.0 0.0  1
kzkv3p75  log  factor   1.9156919E-03  1.000000e-003  1.000000e-001  kz  1.0 0.0  1
kzkv3p76  log  factor   1.7193631E-03  1.000000e-003  1.000000e-001  kz  1.0 0.0  1
kzkv3p77  log  factor   1.5920641E-03  1.000000e-003  1.000000e-001  kz  1.0 0.0  1
kzkv3p78  log  factor   1.6151261E-03  1.000000e-003  1.000000e-001  kz  1.0 0.0  1
kzkv3p79  log  factor   1.8469863E-03  1.000000e-003  1.000000e-001  kz  1.0 0.0  1
kzkv3p80  log  factor   1.7305618E-03  1.000000e-003  1.000000e-001  kz  1.0 0.0  1
kzkv3p81  log  factor   1.7423039E-03  1.000000e-003  1.000000e-001  kz  1.0 0.0  1
kzkv3p82  log  factor   1.8255632E-03  1.000000e-003  1.000000e-001  kz  1.0 0.0  1
kzkv3p83  log  factor   1.8727584E-03  1.000000e-003  1.000000e-001  kz  1.0 0.0  1
kzkv3p84  log  factor   1.9140306E-03  1.000000e-003  1.000000e-001  kz  1.0 0.0  1
kzkv3kh4  tied  factor    1.655262      5.000000e-004  1.000000e+001  kz  1.0  0.0  1
kzkv2p1  log  factor   9.6719028E-03  1.000000e-003  1.000000e+000  kz  1.0  0.0  1
kzkv2p2  log  factor   9.7935582E-03  1.000000e-003  1.000000e+000  kz  1.0  0.0  1
kzkv2p3  log  factor   9.7676161E-03  1.000000e-003  1.000000e+000  kz  1.0  0.0  1
kzkv2p4  log  factor   9.7479413E-03  1.000000e-003  1.000000e+000  kz  1.0  0.0  1
kzkv2p5  log  factor   1.0081581E-02  1.000000e-003  1.000000e+000  kz  1.0  0.0  1
kzkv2p6  log  factor   9.9240875E-03  1.000000e-003  1.000000e+000  kz  1.0  0.0  1
kzkv2p7  log  factor   1.0046341E-02  1.000000e-003  1.000000e+000  kz  1.0  0.0  1
kzkv2p8  log  factor   9.7524685E-03  1.000000e-003  1.000000e+000  kz  1.0  0.0  1
kzkv2p9  log  factor   1.0041657E-02  1.000000e-003  1.000000e+000  kz  1.0  0.0  1
kzkv2p10  log  factor   1.0435581E-02  1.000000e-003  1.000000e+000  kz  1.0  0.0  1
kzkv2p11  log  factor   9.7990780E-03  1.000000e-003  1.000000e+000  kz  1.0  0.0  1
kzkv2p12  log  factor   1.0066662E-02  1.000000e-003  1.000000e+000  kz  1.0  0.0  1
kzkv2p13  log  factor   1.0023595E-02  1.000000e-003  1.000000e+000  kz  1.0  0.0  1
kzkv2p14  log  factor   9.8262296E-03  1.000000e-003  1.000000e+000  kz  1.0  0.0  1
kzkv2p15  log  factor   9.9736828E-03  1.000000e-003  1.000000e+000  kz  1.0  0.0  1
kzkv2p16  log  factor   9.8140134E-03  1.000000e-003  1.000000e+000  kz  1.0  0.0  1
kzkv2p17  log  factor   9.3448746E-03  1.000000e-003  1.000000e+000  kz  1.0  0.0  1
kzkv2p18  log  factor   1.0873869E-02  1.000000e-003  1.000000e+000  kz  1.0  0.0  1
kzkv2p19  log  factor   1.0691742E-02  1.000000e-003  1.000000e+000  kz  1.0  0.0  1
kzkv2p20  log  factor   1.6329147E-02  1.000000e-003  1.000000e+000  kz  1.0  0.0  1
kzkv2p21  log  factor   1.1098180E-02  1.000000e-003  1.000000e+000  kz  1.0  0.0  1
kzkv2p22  log  factor   1.0021498E-02  1.000000e-003  1.000000e+000  kz  1.0  0.0  1
kzkv2p23  log  factor   9.8020362E-03  1.000000e-003  1.000000e+000  kz  1.0  0.0  1
kzkv2p24  log  factor   9.6823536E-03  1.000000e-003  1.000000e+000  kz  1.0  0.0  1
kzkv2p25  log  factor   9.6470045E-03  1.000000e-003  1.000000e+000  kz  1.0  0.0  1
kzkv2p26  log  factor   9.1222156E-03  1.000000e-003  1.000000e+000  kz  1.0  0.0  1
kzkv2p27  log  factor   8.8708931E-03  1.000000e-003  1.000000e+000  kz  1.0  0.0  1
kzkv2p28  log  factor   9.1132403E-03  1.000000e-003  1.000000e+000  kz  1.0  0.0  1
kzkv2p29  log  factor   1.0639330E-02  1.000000e-003  1.000000e+000  kz  1.0  0.0  1
kzkv2p30  log  factor   1.0131076E-02  1.000000e-003  1.000000e+000  kz  1.0  0.0  1
kzkv2p31  log  factor   1.0718003E-02  1.000000e-003  1.000000e+000  kz  1.0  0.0  1
kzkv2p32  log  factor   9.8936154E-03  1.000000e-003  1.000000e+000  kz  1.0  0.0  1
kzkv2p33  log  factor   9.8544057E-03  1.000000e-003  1.000000e+000  kz  1.0  0.0  1
kzkv2p34  log  factor   9.7432291E-03  1.000000e-003  1.000000e+000  kz  1.0  0.0  1
kzkv2p35  log  factor   9.6628072E-03  1.000000e-003  1.000000e+000  kz  1.0  0.0  1
kzkv2p36  log  factor   9.7949274E-03  1.000000e-003  1.000000e+000  kz  1.0  0.0  1
kzkv2p37  log  factor   1.0966820E-02  1.000000e-003  1.000000e+000  kz  1.0  0.0  1
kzkv2p38  log  factor   5.0737499E-03  1.000000e-003  1.000000e+000  kz  1.0  0.0  1
kzkv2p39  log  factor   3.3759103E-03  1.000000e-003  1.000000e+000  kz  1.0  0.0  1
kzkv2p40  log  factor   2.1310190E-02  1.000000e-003  1.000000e+000  kz  1.0  0.0  1
kzkv2p41  log  factor   1.2633963E-02  1.000000e-003  1.000000e+000  kz  1.0  0.0  1
kzkv2p42  log  factor   1.0256372E-02  1.000000e-003  1.000000e+000  kz  1.0  0.0  1
kzkv2p43  log  factor   9.9077170E-03  1.000000e-003  1.000000e+000  kz  1.0  0.0  1
kzkv2p44  log  factor   9.7113880E-03  1.000000e-003  1.000000e+000  kz  1.0  0.0  1
kzkv2p45  log  factor   9.9348922E-03  1.000000e-003  1.000000e+000  kz  1.0  0.0  1
kzkv2p46  log  factor   9.4696079E-03  1.000000e-003  1.000000e+000  kz  1.0  0.0  1
kzkv2p47  log  factor   1.2082153E-02  1.000000e-003  1.000000e+000  kz  1.0  0.0  1
kzkv2p48  log  factor   9.2573610E-03  1.000000e-003  1.000000e+000  kz  1.0  0.0  1
kzkv2p49  log  factor   1.2588696E-02  1.000000e-003  1.000000e+000  kz  1.0  0.0  1
kzkv2p50  log  factor   2.1515217E-02  1.000000e-003  1.000000e+000  kz  1.0  0.0  1
kzkv2p51  log  factor   1.0130376E-02  1.000000e-003  1.000000e+000  kz  1.0  0.0  1
kzkv2p52  log  factor   1.0090171E-02  1.000000e-003  1.000000e+000  kz  1.0  0.0  1
kzkv2p53  log  factor   1.0043177E-02  1.000000e-003  1.000000e+000  kz  1.0  0.0  1
kzkv2p54  log  factor   9.8677607E-03  1.000000e-003  1.000000e+000  kz  1.0  0.0  1
kzkv2p55  log  factor   9.5983968E-03  1.000000e-003  1.000000e+000  kz  1.0  0.0  1
kzkv2p56  log  factor   9.6869569E-03  1.000000e-003  1.000000e+000  kz  1.0  0.0  1
kzkv2p57  log  factor   9.7456482E-03  1.000000e-003  1.000000e+000  kz  1.0  0.0  1
kzkv2p58  log  factor   9.7682774E-03  1.000000e-003  1.000000e+000  kz  1.0  0.0  1
kzkv2p59  log  factor   1.4992537E-02  1.000000e-003  1.000000e+000  kz  1.0  0.0  1
kzkv2p60  log  factor   1.1192791E-02  1.000000e-003  1.000000e+000  kz  1.0  0.0  1
kzkv2p61  log  factor   1.0770498E-02  1.000000e-003  1.000000e+000  kz  1.0  0.0  1
kzkv2p62  log  factor   9.9547803E-03  1.000000e-003  1.000000e+000  kz  1.0  0.0  1
kzkv2p63  log  factor   9.8913852E-03  1.000000e-003  1.000000e+000  kz  1.0  0.0  1
kzkv2p64  log  factor   1.0073308E-02  1.000000e-003  1.000000e+000  kz  1.0  0.0  1
kzkv2p65  log  factor   9.8683493E-03  1.000000e-003  1.000000e+000  kz  1.0  0.0  1
kzkv2p66  log  factor   9.9892710E-03  1.000000e-003  1.000000e+000  kz  1.0  0.0  1
kzkv2p67  log  factor   1.0057124E-02  1.000000e-003  1.000000e+000  kz  1.0  0.0  1
kzkv2p68  log  factor   1.0183434E-02  1.000000e-003  1.000000e+000  kz  1.0  0.0  1
kzkv2p69  log  factor   1.0095201E-02  1.000000e-003  1.000000e+000  kz  1.0  0.0  1
kzkv2p70  log  factor   9.9623548E-03  1.000000e-003  1.000000e+000  kz  1.0  0.0  1
kzkv2p71  log  factor   1.0586088E-02  1.000000e-003  1.000000e+000  kz  1.0  0.0  1
kzkv2p72  log  factor   9.7589400E-03  1.000000e-003  1.000000e+000  kz  1.0  0.0  1
kzkv2p73  log  factor   1.0010163E-02  1.000000e-003  1.000000e+000  kz  1.0  0.0  1
kzkv2p74  log  factor   9.8389516E-03  1.000000e-003  1.000000e+000  kz  1.0  0.0  1
kzkv2p75  log  factor   9.7779826E-03  1.000000e-003  1.000000e+000  kz  1.0  0.0  1
kzkv2p76  log  factor   9.7866130E-03  1.000000e-003  1.000000e+000  kz  1.0  0.0  1
kzkv2p77  log  factor   9.7653837E-03  1.000000e-003  1.000000e+000  kz  1.0  0.0  1
kzkv2p78  log  factor   9.8467865E-03  1.000000e-003  1.000000e+000  kz  1.0  0.0  1
kzkv2p79  log  factor   1.0322920E-02  1.000000e-003  1.000000e+000  kz  1.0  0.0  1
kzkv2p80  log  factor   1.0022180E-02  1.000000e-003  1.000000e+000  kz  1.0  0.0  1
kzkv2p81  log  factor   9.8809725E-03  1.000000e-003  1.000000e+000  kz  1.0  0.0  1
kzkv2p82  log  factor   9.8694486E-03  1.000000e-003  1.000000e+000  kz  1.0  0.0  1
kzkv2p83  log  factor   9.9166566E-03  1.000000e-003  1.000000e+000  kz  1.0  0.0  1
kzkv2p84  log  factor   1.0063086E-02  1.000000e-003  1.000000e+000  kz  1.0  0.0  1
kzkv2kh4  tied  factor    1.655262      5.000000e-004  1.000000e+001  kz  1.0  0.0  1
kpkh2p1  log  factor    29.49849      6.000000  90.000000  kp  1.0  0.0  1
kpkh2p2  log  factor    27.07696      6.000000  90.000000  kp  1.0  0.0  1
kpkh2p3  log  factor    28.87979      6.000000  90.000000  kp  1.0  0.0  1
kpkh2p4  log  factor    29.12117      6.000000  90.000000  kp  1.0  0.0  1
kpkh2p5  log  factor    29.23749      6.000000  90.000000  kp  1.0  0.0  1
kpkh2p6  log  factor    29.70291      6.000000  90.000000  kp  1.0  0.0  1
kpkh2p7  log  factor    29.30889      6.000000  90.000000  kp  1.0  0.0  1
kpkh2p8  log  factor    26.24415      6.000000  90.000000  kp  1.0  0.0  1
kpkh2p9  log  factor    25.72311      6.000000  90.000000  kp  1.0  0.0  1
kpkh2p10  log  factor    30.91468      6.000000  90.000000  kp  1.0  0.0  1
kpkh2p11  log  factor    32.80970      6.000000  90.000000  kp  1.0  0.0  1
kpkh2p12  log  factor    30.48201      6.000000  90.000000  kp  1.0  0.0  1
kpkh2p13  log  factor    29.30698      6.000000  90.000000  kp  1.0  0.0  1
kpkh2p14  log  factor    29.50709      6.000000  90.000000  kp  1.0  0.0  1
kpkh2p15  log  factor    30.82219      6.000000  90.000000  kp  1.0  0.0  1
kpkh2p16  log  factor    25.06922      6.000000  90.000000  kp  1.0  0.0  1
kpkh2p17  log  factor    15.58484      6.000000  90.000000  kp  1.0  0.0  1
kpkh2p18  log  factor    28.43592      6.000000  90.000000  kp  1.0  0.0  1
kpkh2p19  log  factor    37.95053      6.000000  90.000000  kp  1.0  0.0  1
kpkh2p20  log  factor    90.00000      6.000000  90.000000  kp  1.0  0.0  1
kpkh2p21  log  factor    46.17739      6.000000  90.000000  kp  1.0  0.0  1
kpkh2p22  log  factor    30.93147      6.000000  90.000000  kp  1.0  0.0  1
kpkh2p23  log  factor    30.15088      6.000000  90.000000  kp  1.0  0.0  1
kpkh2p24  log  factor    29.15201      6.000000  90.000000  kp  1.0  0.0  1
kpkh2p25  log  factor    28.57853      6.000000  90.000000  kp  1.0  0.0  1
kpkh2p26  log  factor    17.73680      6.000000  90.000000  kp  1.0  0.0  1
kpkh2p27  log  factor    10.67234      6.000000  90.000000  kp  1.0  0.0  1
kpkh2p28  log  factor    41.79872      6.000000  90.000000  kp  1.0  0.0  1
kpkh2p29  log  factor    43.99807      6.000000  90.000000  kp  1.0  0.0  1
kpkh2p30  log  factor    42.65086      6.000000  90.000000  kp  1.0  0.0  1
kpkh2p31  log  factor    45.28437      6.000000  90.000000  kp  1.0  0.0  1
kpkh2p32  log  factor    30.40538      6.000000  90.000000  kp  1.0  0.0  1
kpkh2p33  log  factor    29.23014      6.000000  90.000000  kp  1.0  0.0  1
kpkh2p34  log  factor    29.46625      6.000000  90.000000  kp  1.0  0.0  1
kpkh2p35  log  factor    31.56622      6.000000  90.000000  kp  1.0  0.0  1
kpkh2p36  log  factor    27.43081      6.000000  90.000000  kp  1.0  0.0  1
kpkh2p37  log  factor    23.02734      6.000000  90.000000  kp  1.0  0.0  1
kpkh2p38  log  factor    25.67196      6.000000  90.000000  kp  1.0  0.0  1
kpkh2p39  log  factor    13.80773      6.000000  90.000000  kp  1.0  0.0  1
kpkh2p40  log  factor    40.85984      6.000000  90.000000  kp  1.0  0.0  1
kpkh2p41  log  factor    37.17535      6.000000  90.000000  kp  1.0  0.0  1
kpkh2p42  log  factor    30.78323      6.000000  90.000000  kp  1.0  0.0  1
kpkh2p43  log  factor    32.18231      6.000000  90.000000  kp  1.0  0.0  1
kpkh2p44  log  factor    29.90052      6.000000  90.000000  kp  1.0  0.0  1
kpkh2p45  log  factor    30.20853      6.000000  90.000000  kp  1.0  0.0  1
kpkh2p46  log  factor    29.43592      6.000000  90.000000  kp  1.0  0.0  1
kpkh2p47  log  factor    38.93044      6.000000  90.000000  kp  1.0  0.0  1
kpkh2p48  log  factor    19.67189      6.000000  90.000000  kp  1.0  0.0  1
kpkh2p49  log  factor    10.92782      6.000000  90.000000  kp  1.0  0.0  1
kpkh2p50  log  factor    28.69897      6.000000  90.000000  kp  1.0  0.0  1
kpkh2p51  log  factor    30.11485      6.000000  90.000000  kp  1.0  0.0  1
kpkh2p52  log  factor    30.35531      6.000000  90.000000  kp  1.0  0.0  1
kpkh2p53  log  factor    31.42054      6.000000  90.000000  kp  1.0  0.0  1
kpkh2p54  log  factor    30.38492      6.000000  90.000000  kp  1.0  0.0  1
kpkh2p55  log  factor    29.64651      6.000000  90.000000  kp  1.0  0.0  1
kpkh2p56  log  factor    30.97695      6.000000  90.000000  kp  1.0  0.0  1
kpkh2p57  log  factor    32.29954      6.000000  90.000000  kp  1.0  0.0  1
kpkh2p58  log  factor    32.33616      6.000000  90.000000  kp  1.0  0.0  1
kpkh2p59  log  factor    27.76764      6.000000  90.000000  kp  1.0  0.0  1
kpkh2p60  log  factor    30.28664      6.000000  90.000000  kp  1.0  0.0  1
kpkh2p61  log  factor    32.48340      6.000000  90.000000  kp  1.0  0.0  1
kpkh2p62  log  factor    29.59571      6.000000  90.000000  kp  1.0  0.0  1
kpkh2p63  log  factor    30.22492      6.000000  90.000000  kp  1.0  0.0  1
kpkh2p64  log  factor    30.22234      6.000000  90.000000  kp  1.0  0.0  1
kpkh2p65  log  factor    29.41537      6.000000  90.000000  kp  1.0  0.0  1
kpkh2p66  log  factor    30.02005      6.000000  90.000000  kp  1.0  0.0  1
kpkh2p67  log  factor    29.98002      6.000000  90.000000  kp  1.0  0.0  1
kpkh2p68  log  factor    30.40670      6.000000  90.000000  kp  1.0  0.0  1
kpkh2p69  log  factor    31.93685      6.000000  90.000000  kp  1.0  0.0  1
kpkh2p70  log  factor    32.74455      6.000000  90.000000  kp  1.0  0.0  1
kpkh2p71  log  factor    30.73031      6.000000  90.000000  kp  1.0  0.0  1
kpkh2p72  log  factor    30.45212      6.000000  90.000000  kp  1.0  0.0  1
kpkh2p73  log  factor    29.91852      6.000000  90.000000  kp  1.0  0.0  1
kpkh2p74  log  factor    29.53611      6.000000  90.000000  kp  1.0  0.0  1
kpkh2p75  log  factor    30.26953      6.000000  90.000000  kp  1.0  0.0  1
kpkh2p76  log  factor    30.05212      6.000000  90.000000  kp  1.0  0.0  1
kpkh2p77  log  factor    30.45635      6.000000  90.000000  kp  1.0  0.0  1
kpkh2p78  log  factor    30.94146      6.000000  90.000000  kp  1.0  0.0  1
kpkh2p79  log  factor    30.36287      6.000000  90.000000  kp  1.0  0.0  1
kpkh2p80  log  factor    31.48806      6.000000  90.000000  kp  1.0  0.0  1
kpkh2p81  log  factor    30.63112      6.000000  90.000000  kp  1.0  0.0  1
kpkh2p82  log  factor    29.95359      6.000000  90.000000  kp  1.0  0.0  1
kpkh2p83  log  factor    28.75710      6.000000  90.000000  kp  1.0  0.0  1
kpkh2p84  log  factor    29.32062      6.000000  90.000000  kp  1.0  0.0  1
kpkh2kh4  tied  factor    22.59976      5.000000  50.000000  kp  1.0  0.0  1
kzkv1p1  log  factor   9.0350552E-03  1.000000e-003  5.000000e-001  kz  1.0  0.0  1
kzkv1p2  log  factor   8.9576646E-03  1.000000e-003  5.000000e-001  kz  1.0  0.0  1
kzkv1p3  log  factor   8.9385411E-03  1.000000e-003  5.000000e-001  kz  1.0  0.0  1
kzkv1p4  log  factor   8.6300484E-03  1.000000e-003  5.000000e-001  kz  1.0  0.0  1
kzkv1p5  log  factor   9.0414561E-03  1.000000e-003  5.000000e-001  kz  1.0  0.0  1
kzkv1p6  log  factor   9.0932410E-03  1.000000e-003  5.000000e-001  kz  1.0  0.0  1
kzkv1p7  log  factor   9.1373037E-03  1.000000e-003  5.000000e-001  kz  1.0  0.0  1
kzkv1p8  log  factor   9.0374519E-03  1.000000e-003  5.000000e-001  kz  1.0  0.0  1
kzkv1p9  log  factor   9.1444198E-03  1.000000e-003  5.000000e-001  kz  1.0  0.0  1
kzkv1p10  log  factor   9.3221356E-03  1.000000e-003  5.000000e-001  kz  1.0  0.0  1
kzkv1p11  log  factor   8.6708302E-03  1.000000e-003  5.000000e-001  kz  1.0  0.0  1
kzkv1p12  log  factor   9.0033443E-03  1.000000e-003  5.000000e-001  kz  1.0  0.0  1
kzkv1p13  log  factor   8.8022387E-03  1.000000e-003  5.000000e-001  kz  1.0  0.0  1
kzkv1p14  log  factor   8.8285507E-03  1.000000e-003  5.000000e-001  kz  1.0  0.0  1
kzkv1p15  log  factor   8.9362761E-03  1.000000e-003  5.000000e-001  kz  1.0  0.0  1
kzkv1p16  log  factor   8.8274843E-03  1.000000e-003  5.000000e-001  kz  1.0  0.0  1
kzkv1p17  log  factor   8.4132414E-03  1.000000e-003  5.000000e-001  kz  1.0  0.0  1
kzkv1p18  log  factor   9.0874374E-03  1.000000e-003  5.000000e-001  kz  1.0  0.0  1
kzkv1p19  log  factor   9.1582982E-03  1.000000e-003  5.000000e-001  kz  1.0  0.0  1
kzkv1p20  log  factor   1.2046138E-02  1.000000e-003  5.000000e-001  kz  1.0  0.0  1
kzkv1p21  log  factor   9.2599212E-03  1.000000e-003  5.000000e-001  kz  1.0  0.0  1
kzkv1p22  log  factor   8.9786853E-03  1.000000e-003  5.000000e-001  kz  1.0  0.0  1
kzkv1p23  log  factor   8.8214408E-03  1.000000e-003  5.000000e-001  kz  1.0  0.0  1
kzkv1p24  log  factor   8.9559435E-03  1.000000e-003  5.000000e-001  kz  1.0  0.0  1
kzkv1p25  log  factor   9.1015117E-03  1.000000e-003  5.000000e-001  kz  1.0  0.0  1
kzkv1p26  log  factor   8.5770415E-03  1.000000e-003  5.000000e-001  kz  1.0  0.0  1
kzkv1p27  log  factor   8.0873312E-03  1.000000e-003  5.000000e-001  kz  1.0  0.0  1
kzkv1p28  log  factor   8.3329350E-03  1.000000e-003  5.000000e-001  kz  1.0  0.0  1
kzkv1p29  log  factor   8.6631147E-03  1.000000e-003  5.000000e-001  kz  1.0  0.0  1
kzkv1p30  log  factor   9.0935390E-03  1.000000e-003  5.000000e-001  kz  1.0  0.0  1
kzkv1p31  log  factor   9.3300874E-03  1.000000e-003  5.000000e-001  kz  1.0  0.0  1
kzkv1p32  log  factor   8.8564250E-03  1.000000e-003  5.000000e-001  kz  1.0  0.0  1
kzkv1p33  log  factor   8.8915332E-03  1.000000e-003  5.000000e-001  kz  1.0  0.0  1
kzkv1p34  log  factor   8.6132911E-03  1.000000e-003  5.000000e-001  kz  1.0  0.0  1
kzkv1p35  log  factor   9.0371584E-03  1.000000e-003  5.000000e-001  kz  1.0  0.0  1
kzkv1p36  log  factor   8.7957393E-03  1.000000e-003  5.000000e-001  kz  1.0  0.0  1
kzkv1p37  log  factor   1.1132153E-02  1.000000e-003  5.000000e-001  kz  1.0  0.0  1
kzkv1p38  log  factor   3.7648770E-03  1.000000e-003  5.000000e-001  kz  1.0  0.0  1
kzkv1p39  log  factor   3.3434535E-03  1.000000e-003  5.000000e-001  kz  1.0  0.0  1
kzkv1p40  log  factor   9.0833996E-03  1.000000e-003  5.000000e-001  kz  1.0  0.0  1
kzkv1p41  log  factor   1.0094313E-02  1.000000e-003  5.000000e-001  kz  1.0  0.0  1
kzkv1p42  log  factor   9.2771974E-03  1.000000e-003  5.000000e-001  kz  1.0  0.0  1
kzkv1p43  log  factor   8.8723887E-03  1.000000e-003  5.000000e-001  kz  1.0  0.0  1
kzkv1p44  log  factor   8.6856298E-03  1.000000e-003  5.000000e-001  kz  1.0  0.0  1
kzkv1p45  log  factor   8.6478805E-03  1.000000e-003  5.000000e-001  kz  1.0  0.0  1
kzkv1p46  log  factor   8.9943014E-03  1.000000e-003  5.000000e-001  kz  1.0  0.0  1
kzkv1p47  log  factor   1.2011013E-02  1.000000e-003  5.000000e-001  kz  1.0  0.0  1
kzkv1p48  log  factor   7.9175066E-03  1.000000e-003  5.000000e-001  kz  1.0  0.0  1
kzkv1p49  log  factor   4.8795943E-03  1.000000e-003  5.000000e-001  kz  1.0  0.0  1
kzkv1p50  log  factor   1.1277408E-02  1.000000e-003  5.000000e-001  kz  1.0  0.0  1
kzkv1p51  log  factor   9.4997958E-03  1.000000e-003  5.000000e-001  kz  1.0  0.0  1
kzkv1p52  log  factor   8.8063862E-03  1.000000e-003  5.000000e-001  kz  1.0  0.0  1
kzkv1p53  log  factor   8.8847185E-03  1.000000e-003  5.000000e-001  kz  1.0  0.0  1
kzkv1p54  log  factor   9.0482017E-03  1.000000e-003  5.000000e-001  kz  1.0  0.0  1
kzkv1p55  log  factor   8.9048430E-03  1.000000e-003  5.000000e-001  kz  1.0  0.0  1
kzkv1p56  log  factor   8.5421120E-03  1.000000e-003  5.000000e-001  kz  1.0  0.0  1
kzkv1p57  log  factor   8.9811573E-03  1.000000e-003  5.000000e-001  kz  1.0  0.0  1
kzkv1p58  log  factor   8.9685625E-03  1.000000e-003  5.000000e-001  kz  1.0  0.0  1
kzkv1p59  log  factor   9.8923472E-03  1.000000e-003  5.000000e-001  kz  1.0  0.0  1
kzkv1p60  log  factor   9.7432590E-03  1.000000e-003  5.000000e-001  kz  1.0  0.0  1
kzkv1p61  log  factor   9.0246782E-03  1.000000e-003  5.000000e-001  kz  1.0  0.0  1
kzkv1p62  log  factor   8.8369362E-03  1.000000e-003  5.000000e-001  kz  1.0  0.0  1
kzkv1p63  log  factor   8.7890590E-03  1.000000e-003  5.000000e-001  kz  1.0  0.0  1
kzkv1p64  log  factor   8.9061057E-03  1.000000e-003  5.000000e-001  kz  1.0  0.0  1
kzkv1p65  log  factor   9.1238495E-03  1.000000e-003  5.000000e-001  kz  1.0  0.0  1
kzkv1p66  log  factor   8.9723688E-03  1.000000e-003  5.000000e-001  kz  1.0  0.0  1
kzkv1p67  log  factor   8.8599124E-03  1.000000e-003  5.000000e-001  kz  1.0  0.0  1
kzkv1p68  log  factor   9.0285668E-03  1.000000e-003  5.000000e-001  kz  1.0  0.0  1
kzkv1p69  log  factor   8.8692939E-03  1.000000e-003  5.000000e-001  kz  1.0  0.0  1
kzkv1p70  log  factor   9.0659574E-03  1.000000e-003  5.000000e-001  kz  1.0  0.0  1
kzkv1p71  log  factor   9.1683543E-03  1.000000e-003  5.000000e-001  kz  1.0  0.0  1
kzkv1p72  log  factor   8.9261783E-03  1.000000e-003  5.000000e-001  kz  1.0  0.0  1
kzkv1p73  log  factor   8.9953838E-03  1.000000e-003  5.000000e-001  kz  1.0  0.0  1
kzkv1p74  log  factor   8.6493890E-03  1.000000e-003  5.000000e-001  kz  1.0  0.0  1
kzkv1p75  log  factor   8.7421314E-03  1.000000e-003  5.000000e-001  kz  1.0  0.0  1
kzkv1p76  log  factor   8.7772272E-03  1.000000e-003  5.000000e-001  kz  1.0  0.0  1
kzkv1p77  log  factor   9.0163976E-03  1.000000e-003  5.000000e-001  kz  1.0  0.0  1
kzkv1p78  log  factor   8.8398760E-03  1.000000e-003  5.000000e-001  kz  1.0  0.0  1
kzkv1p79  log  factor   9.2579537E-03  1.000000e-003  5.000000e-001  kz  1.0  0.0  1
kzkv1p80  log  factor   9.0854061E-03  1.000000e-003  5.000000e-001  kz  1.0  0.0  1
kzkv1p81  log  factor   9.1053522E-03  1.000000e-003  5.000000e-001  kz  1.0  0.0  1
kzkv1p82  log  factor   8.9673370E-03  1.000000e-003  5.000000e-001  kz  1.0  0.0  1
kzkv1p83  log  factor   8.6871408E-03  1.000000e-003  5.000000e-001  kz  1.0  0.0  1
kzkv1p84  log  factor   8.9118240E-03  1.000000e-003  5.000000e-001  kz  1.0  0.0  1