pcf
* control data
 restart estimation
19     74       6    0      2
7  5  single  point  1  0  0
0.000000e+000  2.000000e+000  3.000000e-001  1.000000e-002  1 999
1.000000e+001  1.000000e+001  1.000000e-003
1.000000e-001 noaui
0  1.000000e-002  3  3  1.000000e-002  3
0  0  0
* singular value decomposition
1
4 1.00e-07
1
* parameter groups
Kp     relative   1.000000e-002  0.000000e+000  switch  2.000000e+000  parabolic
Kz     relative   1.000000e-002  0.000000e+000  switch  2.000000e+000  parabolic
Rech   relative   1.000000e-002  0.000000e+000  switch  2.000000e+000  parabolic
Leakance   relative   1.000000e-002  0.000000e+000  switch  2.000000e+000  parabolic
Storage  relative 1.000000e-002  0.000000e+000  switch  2.000000e+000  parabolic
UZF    relative   1.000000e-002  0.000000e+000  switch  2.000000e+000  parabolic
* parameter data
kx3  fixed  factor    2.509745      5.000000e-002  1.000000e+001    kp   1.0   0.0 1
kx4  fixed  factor    21.21320      5.000000e+000  5.000000e+001    kp   1.0   0.0 1
kz4  fixed  factor    2.121320      5.000000e-002  1.000000e+001    kz   1.0   0.0 1
sy   log  factor   0.3000000      1.500000e-001  3.000000e-001    storage   1.0   0.0 1
ss   tied  factor   0.3000000      1.500000e-001  3.000000e-001    storage   1.0   0.0 1
sc2   fixed  factor   6.0000000E-04  3.000000e-004  1.800000e-003    storage   1.0   0.0 1
sc3   fixed  factor   8.0000000E-04  4.000000e-004  2.400000e-003    storage   1.0   0.0 1
sc4   fixed  factor   6.4000000E-03  3.200000e-003  1.900000e-002    storage   1.0   0.0 1
vks  fixed  factor   0.1000000      5.000000e-003  5.000000e-001   uzf   1.0   0.0 1
eps  fixed  factor    3.500000      2.000000       5.000000        uzf   1.0   0.0 1
thts  fixed  factor   0.3000000      1.000000e-001  4.000000e-001   uzf   1.0   0.0 1
shellsandl fixed factor   5.3223970E-03  1.000000e-003  1.000000e-001    leakance   1.0   0.0 1
shellmuckl fixed factor   5.3223970E-03  5.000000e-004  1.000000e-001    leakance   1.0   0.0 1
smallsandl fixed factor   5.3223970E-03  1.000000e-003  1.000000e-001    leakance   1.0   0.0 1
smallmuckl fixed factor   5.3223970E-03  5.000000e-004  1.000000e-001    leakance   1.0   0.0 1
r7   fixed  factor    1.803247      1.000000e-004  1.000000e+003    rech   0.001   0.0 1
rmult   none  factor   0.8115926      0.600000        1.200000        rech   1.0  0.0 1
emultrainbow   none  factor    1.283648      0.600000        1.600000        rech   1.0  0.0 1
emultmrshfld   none  factor   0.9878272      0.600000        1.600000        rech   1.0  0.0 1
Ss Sy
* observation groups
Shell
Lakes
* observation data
ShellLakeSS    1215.6500    0.0000  Shell		
ShellLakeSP2   1215.65   1.0000  Shell		
ShellLakeSP3   1216.67   1.0000  Shell		
ShellLakeSP4   1218.59   1.0000  Shell		
ShellLakeSP5   1219.35   1.0000  Shell		
ShellLakeSP6   1219.48   1.0000  Shell		
ShellLakeSP7   1220.33   1.0000  Shell		
ShellLakeSP8   1219.54   1.0000  Shell		
ShellLakeSP9   1219.27   1.0000  Shell		
ShellLakeSP10  1218.98    1.0000  Shell		
ShellLakeSP11  1219.29    1.0000  Shell		
ShellLakeSP12  1218.19    1.0000  Shell		
ShellLakeSP13  1218.70    1.0000  Shell		
ShellLakeSP14  1218.17    1.0000  Shell		
ShellLakeSP15  1217.86    1.0000  Shell		
ShellLakeSP16  1217.25    1.0000  Shell		
ShellLakeSP17  1216.62    1.0000  Shell		
ShellLakeSP18  1217.25    1.0000  Shell		
ShellLakeSP19  1217.67    1.0000  Shell		
ShellLakeSP20  1217.85    1.0000  Shell		
ShellLakeSP21  1218.97    1.0000  Shell		
ShellLakeSP22  1219.66    1.0000  Shell		
ShellLakeSP23  1218.36    1.0000  Shell		
ShellLakeSP24  1218.63    1.0000  Shell		
ShellLakeSP25  1218.70    1.0000  Shell		
ShellLakeSP26  1219.09    1.0000  Shell		
ShellLakeSP27  1218.73    1.0000  Shell		
ShellLakeSP28  1218.43    1.0000  Shell		
ShellLakeSP29  1217.92    1.0000  Shell		
ShellLakeSP30  1216.83    1.0000  Shell		
ShellLakeSP31  1217.56    1.0000  Shell		
ShellLakeSP32  1217.70    1.0000  Shell		
ShellLakeSP33  1217.31    1.0000  Shell		
ShellLakeSP34  1218.49    1.0000  Shell		
ShellLakeSP37   1221.33    1.0000  Shell		
ShellLakeSP39   1221.84    1.0000  Shell		
ShellLakeSP40   1220.41    1.0000  Shell		
ShellLakeSP41   1219.66    1.0000  Shell		
ShellLakeSP42   1219.08    1.0000  Shell		
ShellLakeSP43   1218.89    1.0000  Shell		
ShellLakeSP44   1219.51    1.0000  Shell		
ShellLakeSP45   1220.47    1.0000  Shell		
ShellLakeSP46   1220.79    1.0000  Shell		
ShellLakeSP47   1220.46    1.0000  Shell		
ShellLakeSP48   1220.59    1.0000  Shell		
ShellLakeSP49   1222.08    1.0000  Shell		
ShellLakeSP50   1221.91    1.0000  Shell		
ShellLakeSP51   1221.61    1.0000  Shell		
ShellLakeSP52   1221.31    1.0000  Shell		
ShellLakeSP53   1221.22    1.0000  Shell		
ShellLakeSP54   1222.99    1.0000  Shell		
ShellLakeSP55   1224.00    1.0000  Shell		
ShellLakeSP56   1224.04    1.0000  Shell		
ShellLakeSP57   1222.13    1.0000  Shell		
ShellLakeSP58   1220.53    1.0000  Shell		
ShellLakeSP59   1220.23    1.0000  Shell		
ShellLakeSP60   1218.78    1.0000  Shell		
ShellLakeSP61   1218.95    1.0000  Shell		
ShellLakeSP62   1000.00    0.0000  Shell		
RipleySP59	1235.88    1.00000  Lakes
RipleySP60	1234.30    1.00000  Lakes
RipleySP61	1233.81    1.00000  Lakes
RipleySP62	1000.00    0.00000  Lakes
LittleRipleySP60    1233.8100   1.00000  Lakes		
LittleRipleySP61    1234.5900   1.00000  Lakes		
LittleRipleySP62    1000.00   0.00000  Lakes		
ChainLakeSP59    1232.19    1.00000  Lakes		
ChainLakeSP60    1230.87    1.00000  Lakes		
ChainLakeSP61    1230.70    1.00000  Lakes		
ChainLakeSP62    1000.00    0.00000  Lakes		
RoundLakeSP59    1232.21    1.00000  Lakes		
RoundLakeSP60    1229.27    1.00000  Lakes		
RoundLakeSP61    1228.71    1.00000  Lakes		
RoundLakeSP62    1000.00    0.00000  Lakes		
* model command line
shell9b_TR.bat
* model input/output
Shell8_L1_Ss.tpl Shell8_L1._Ss
Shell8_L1_Sy.tpl Shell8_L1._Sy
Shell8_L2_SC.tpl Shell8_L2._SC
Shell8_L3_SC.tpl Shell8_L3._SC
Shell8_L4_SC.tpl Shell8_L4._SC
par2par_shell9b_TR.tpl   par2par_shell9b_TR.dat
shell9b_TR_lpf.tpl        Shell9b_TR.lpf
Shell9_TR_Shellgage.ins   Shell9b_TR_shell.out
Shell9_TR_Ripleygage.ins  Shell9b_TR_ripley.out
Shell9_TR_ltlripleygage.ins Shell9b_TR_Ltl_Ripley.out
Shell9_TR_chaingage.ins   Shell9b_TR_chain.out
Shell9_TR_roundgage.ins   Shell9b_TR_round.out
