pcf
* control data
restart estimation
   2640  12001      6       0      2
    6     2 single point   1   0   0
  5.0  -3.0   0.3  0.03    10
  3.0   3.0 0.001  0
  0.1
   70  0.01     3     3  0.01     3
    1     1     1
* singular value decomposition
         1
      2600     5E-07
         0
* parameter groups
HK     relative 0.01  0.0  always_3  2.0 parabolic
ANIZ   relative 0.01  0.0  always_3  2.0 parabolic
HTR    relative 0.01  0.0  always_3  2.0 parabolic
HTS    relative 0.01  0.0  always_3  2.0 parabolic
ALFA   relative 0.01  0.0  always_3  2.0 parabolic
THET   relative 0.01  0.0  always_3  2.0 parabolic
* parameter data
hk_001          fixed  factor    999999.0      0.0000000e+00       99999999     hk      1.0000      0.0000   1
hk_002          fixed  factor    999999.0      0.0000000e+00       99999999     hk      1.0000      0.0000   1
hk_003          fixed  factor    999999.0      0.0000000e+00       99999999     hk      1.0000      0.0000   1
hk_004          fixed  factor    999999.0      0.0000000e+00       99999999     hk      1.0000      0.0000   1
hk_005          fixed  factor    999999.0      0.0000000e+00       99999999     hk      1.0000      0.0000   1
hk_006          fixed  factor    999999.0      0.0000000e+00       99999999     hk      1.0000      0.0000   1
hk_007          fixed  factor    999999.0      0.0000000e+00       99999999     hk      1.0000      0.0000   1
hk_008          fixed  factor    999999.0      0.0000000e+00       99999999     hk      1.0000      0.0000   1
hk_009          fixed  factor    999999.0      0.0000000e+00       99999999     hk      1.0000      0.0000   1
hk_010          fixed  factor    999999.0      0.0000000e+00       99999999     hk      1.0000      0.0000   1
hk_011          fixed  factor    999999.0      0.0000000e+00       99999999     hk      1.0000      0.0000   1
hk_012          fixed  factor    999999.0      0.0000000e+00       99999999     hk      1.0000      0.0000   1
hk_013          fixed  factor    999999.0      0.0000000e+00       99999999     hk      1.0000      0.0000   1
hk_014          fixed  factor    999999.0      0.0000000e+00       99999999     hk      1.0000      0.0000   1
hk_015          fixed  factor    999999.0      0.0000000e+00       99999999     hk      1.0000      0.0000   1
hk_016          fixed  factor    999999.0      0.0000000e+00       99999999     hk      1.0000      0.0000   1
hk_017          fixed  factor    999999.0      0.0000000e+00       99999999     hk      1.0000      0.0000   1
hk_018          fixed  factor    999999.0      0.0000000e+00       99999999     hk      1.0000      0.0000   1
hk_019          fixed  factor    999999.0      0.0000000e+00       99999999     hk      1.0000      0.0000   1
hk_020          fixed  factor    999999.0      0.0000000e+00       99999999     hk      1.0000      0.0000   1
hk_021          fixed  factor    999999.0      0.0000000e+00       99999999     hk      1.0000      0.0000   1
hk_022          fixed  factor    999999.0      0.0000000e+00       99999999     hk      1.0000      0.0000   1
hk_023          fixed  factor    999999.0      0.0000000e+00       99999999     hk      1.0000      0.0000   1
hk_024          fixed  factor    999999.0      0.0000000e+00       99999999     hk      1.0000      0.0000   1
hk_025          fixed  factor    999999.0      0.0000000e+00       99999999     hk      1.0000      0.0000   1
hk_026          fixed  factor    999999.0      0.0000000e+00       99999999     hk      1.0000      0.0000   1
hk_027          fixed  factor    999999.0      0.0000000e+00       99999999     hk      1.0000      0.0000   1
hk_028          fixed  factor    999999.0      0.0000000e+00       99999999     hk      1.0000      0.0000   1
hk_029          fixed  factor    999999.0      0.0000000e+00       99999999     hk      1.0000      0.0000   1
hk_030          fixed  factor    999999.0      0.0000000e+00       99999999     hk      1.0000      0.0000   1
hk_031          fixed  factor    999999.0      0.0000000e+00       99999999     hk      1.0000      0.0000   1
hk_032          fixed  factor    999999.0      0.0000000e+00       99999999     hk      1.0000      0.0000   1
hk_033          fixed  factor    999999.0      0.0000000e+00       99999999     hk      1.0000      0.0000   1
hk_034          fixed  factor    999999.0      0.0000000e+00       99999999     hk      1.0000      0.0000   1
hk_035          fixed  factor    999999.0      0.0000000e+00       99999999     hk      1.0000      0.0000   1
hk_036          fixed  factor    999999.0      0.0000000e+00       99999999     hk      1.0000      0.0000   1
hk_037          fixed  factor    999999.0      0.0000000e+00       99999999     hk      1.0000      0.0000   1
hk_038          fixed  factor    999999.0      0.0000000e+00       99999999     hk      1.0000      0.0000   1
hk_039          fixed  factor    999999.0      0.0000000e+00       99999999     hk      1.0000      0.0000   1
hk_040          fixed  factor    999999.0      0.0000000e+00       99999999     hk      1.0000      0.0000   1
hk_041          fixed  factor    999999.0      0.0000000e+00       99999999     hk      1.0000      0.0000   1
hk_042          fixed  factor    999999.0      0.0000000e+00       99999999     hk      1.0000      0.0000   1
hk_043          fixed  factor    999999.0      0.0000000e+00       99999999     hk      1.0000      0.0000   1
hk_044          fixed  factor    999999.0      0.0000000e+00       99999999     hk      1.0000      0.0000   1
hk_045          fixed  factor    999999.0      0.0000000e+00       99999999     hk      1.0000      0.0000   1
hk_046          fixed  factor    999999.0      0.0000000e+00       99999999     hk      1.0000      0.0000   1
hk_047          fixed  factor    999999.0      0.0000000e+00       99999999     hk      1.0000      0.0000   1
hk_048          fixed  factor    999999.0      0.0000000e+00       99999999     hk      1.0000      0.0000   1
hk_049          fixed  factor    999999.0      0.0000000e+00       99999999     hk      1.0000      0.0000   1
hk_050          fixed  factor    999999.0      0.0000000e+00       99999999     hk      1.0000      0.0000   1
hk_051          fixed  factor    999999.0      0.0000000e+00       99999999     hk      1.0000      0.0000   1
hk_052          fixed  factor    999999.0      0.0000000e+00       99999999     hk      1.0000      0.0000   1
hk_053          fixed  factor    999999.0      0.0000000e+00       99999999     hk      1.0000      0.0000   1
hk_054          fixed  factor    999999.0      0.0000000e+00       99999999     hk      1.0000      0.0000   1
hk_055          fixed  factor    999999.0      0.0000000e+00       99999999     hk      1.0000      0.0000   1
hk_056          fixed  factor    999999.0      0.0000000e+00       99999999     hk      1.0000      0.0000   1
hk_057          fixed  factor    999999.0      0.0000000e+00       99999999     hk      1.0000      0.0000   1
hk_058          fixed  factor    999999.0      0.0000000e+00       99999999     hk      1.0000      0.0000   1
hk_059          fixed  factor    999999.0      0.0000000e+00       99999999     hk      1.0000      0.0000   1
hk_060          fixed  factor    999999.0      0.0000000e+00       99999999     hk      1.0000      0.0000   1
hk_061            log  factor   0.7858837      1.0000000e-05  1.0000000e+01     hk      1.0000      0.0000   1
hk_062            log  factor   0.8230835      1.0000000e-05  1.0000000e+01     hk      1.0000      0.0000   1
hk_063            log  factor   0.7683745      1.0000000e-05  1.0000000e+01     hk      1.0000      0.0000   1
hk_064            log  factor   0.8839106      1.0000000e-05  1.0000000e+01     hk      1.0000      0.0000   1
hk_065            log  factor   0.6855334      1.0000000e-05  1.0000000e+01     hk      1.0000      0.0000   1
hk_066            log  factor   0.8112093      1.0000000e-05  1.0000000e+01     hk      1.0000      0.0000   1
hk_067          fixed  factor    999999.0      0.0000000e+00       99999999     hk      1.0000      0.0000   1
hk_068          fixed  factor    999999.0      0.0000000e+00       99999999     hk      1.0000      0.0000   1
hk_069          fixed  factor    999999.0      0.0000000e+00       99999999     hk      1.0000      0.0000   1
hk_070          fixed  factor    999999.0      0.0000000e+00       99999999     hk      1.0000      0.0000   1
hk_071          fixed  factor    999999.0      0.0000000e+00       99999999     hk      1.0000      0.0000   1
hk_072          fixed  factor    999999.0      0.0000000e+00       99999999     hk      1.0000      0.0000   1
hk_073          fixed  factor    999999.0      0.0000000e+00       99999999     hk      1.0000      0.0000   1
hk_074          fixed  factor    999999.0      0.0000000e+00       99999999     hk      1.0000      0.0000   1
hk_075          fixed  factor    999999.0      0.0000000e+00       99999999     hk      1.0000      0.0000   1
hk_076          fixed  factor    999999.0      0.0000000e+00       99999999     hk      1.0000      0.0000   1
hk_077          fixed  factor    999999.0      0.0000000e+00       99999999     hk      1.0000      0.0000   1
hk_078          fixed  factor    999999.0      0.0000000e+00       99999999     hk      1.0000      0.0000   1
hk_079          fixed  factor    999999.0      0.0000000e+00       99999999     hk      1.0000      0.0000   1
hk_080          fixed  factor    999999.0      0.0000000e+00       99999999     hk      1.0000      0.0000   1
hk_081            log  factor   0.7057293      1.0000000e-05  1.0000000e+01     hk      1.0000      0.0000   1
hk_082            log  factor   0.6627592      1.0000000e-05  1.0000000e+01     hk      1.0000      0.0000   1
hk_083            log  factor   0.7126818      1.0000000e-05  1.0000000e+01     hk      1.0000      0.0000   1
hk_084            log  factor   0.7944393      1.0000000e-05  1.0000000e+01     hk      1.0000      0.0000   1
hk_085            log  factor   0.8293935      1.0000000e-05  1.0000000e+01     hk      1.0000      0.0000   1
hk_086            log  factor   0.6577910      1.0000000e-05  1.0000000e+01     hk      1.0000      0.0000   1
hk_087          fixed  factor    999999.0      0.0000000e+00       99999999     hk      1.0000      0.0000   1
hk_088          fixed  factor    999999.0      0.0000000e+00       99999999     hk      1.0000      0.0000   1
hk_089          fixed  factor    999999.0      0.0000000e+00       99999999     hk      1.0000      0.0000   1
hk_090          fixed  factor    999999.0      0.0000000e+00       99999999     hk      1.0000      0.0000   1
hk_091          fixed  factor    999999.0      0.0000000e+00       99999999     hk      1.0000      0.0000   1
hk_092          fixed  factor    999999.0      0.0000000e+00       99999999     hk      1.0000      0.0000   1
hk_093          fixed  factor    999999.0      0.0000000e+00       99999999     hk      1.0000      0.0000   1
hk_094          fixed  factor    999999.0      0.0000000e+00       99999999     hk      1.0000      0.0000   1
hk_095          fixed  factor    999999.0      0.0000000e+00       99999999     hk      1.0000      0.0000   1
hk_096          fixed  factor    999999.0      0.0000000e+00       99999999     hk      1.0000      0.0000   1
hk_097          fixed  factor    999999.0      0.0000000e+00       99999999     hk      1.0000      0.0000   1
hk_098          fixed  factor    999999.0      0.0000000e+00       99999999     hk      1.0000      0.0000   1
hk_099          fixed  factor    999999.0      0.0000000e+00       99999999     hk      1.0000      0.0000   1
hk_100          fixed  factor    999999.0      0.0000000e+00       99999999     hk      1.0000      0.0000   1
hk_101            log  factor   0.7580300      1.0000000e-05  1.0000000e+01     hk      1.0000      0.0000   1
hk_102            log  factor   0.6217410      1.0000000e-05  1.0000000e+01     hk      1.0000      0.0000   1
hk_103            log  factor   0.7782738      1.0000000e-05  1.0000000e+01     hk      1.0000      0.0000   1
hk_104            log  factor   0.6799387      1.0000000e-05  1.0000000e+01     hk      1.0000      0.0000   1
hk_105            log  factor    1.038438      1.0000000e-05  1.0000000e+01     hk      1.0000      0.0000   1
hk_106            log  factor   0.9534853      1.0000000e-05  1.0000000e+01     hk      1.0000      0.0000   1
hk_107            log  factor   0.9804104      1.0000000e-05  1.0000000e+01     hk      1.0000      0.0000   1
hk_108          fixed  factor    999999.0      0.0000000e+00       99999999     hk      1.0000      0.0000   1
hk_109          fixed  factor    999999.0      0.0000000e+00       99999999     hk      1.0000      0.0000   1
hk_110          fixed  factor    999999.0      0.0000000e+00       99999999     hk      1.0000      0.0000   1
hk_111          fixed  factor    999999.0      0.0000000e+00       99999999     hk      1.0000      0.0000   1
hk_112          fixed  factor    999999.0      0.0000000e+00       99999999     hk      1.0000      0.0000   1
hk_113          fixed  factor    999999.0      0.0000000e+00       99999999     hk      1.0000      0.0000   1
hk_114          fixed  factor    999999.0      0.0000000e+00       99999999     hk      1.0000      0.0000   1
hk_115          fixed  factor    999999.0      0.0000000e+00       99999999     hk      1.0000      0.0000   1
hk_116          fixed  factor    999999.0      0.0000000e+00       99999999     hk      1.0000      0.0000   1
hk_117          fixed  factor    999999.0      0.0000000e+00       99999999     hk      1.0000      0.0000   1
hk_118          fixed  factor    999999.0      0.0000000e+00       99999999     hk      1.0000      0.0000   1
hk_119          fixed  factor    999999.0      0.0000000e+00       99999999     hk      1.0000      0.0000   1
hk_120          fixed  factor    999999.0      0.0000000e+00       99999999     hk      1.0000      0.0000   1
hk_121            log  factor   0.7021201      1.0000000e-05  1.0000000e+01     hk      1.0000      0.0000   1
hk_122            log  factor   0.9217596      1.0000000e-05  1.0000000e+01     hk      1.0000      0.0000   1
hk_123            log  factor   0.7431205      1.0000000e-05  1.0000000e+01     hk      1.0000      0.0000   1
hk_124            log  factor   0.7001120      1.0000000e-05  1.0000000e+01     hk      1.0000      0.0000   1
hk_125            log  factor    1.039165      1.0000000e-05  1.0000000e+01     hk      1.0000      0.0000   1
hk_126            log  factor    3.665809      1.0000000e-05  1.0000000e+01     hk      1.0000      0.0000   1
hk_127            log  factor    1.452011      1.0000000e-05  1.0000000e+01     hk      1.0000      0.0000   1
hk_128          fixed  factor    999999.0      0.0000000e+00       99999999     hk      1.0000      0.0000   1
hk_129          fixed  factor    999999.0      0.0000000e+00       99999999     hk      1.0000      0.0000   1
hk_130          fixed  factor    999999.0      0.0000000e+00       99999999     hk      1.0000      0.0000   1
hk_131          fixed  factor    999999.0      0.0000000e+00       99999999     hk      1.0000      0.0000   1
hk_132          fixed  factor    999999.0      0.0000000e+00       99999999     hk      1.0000      0.0000   1
hk_133          fixed  factor    999999.0      0.0000000e+00       99999999     hk      1.0000      0.0000   1
hk_134          fixed  factor    999999.0      0.0000000e+00       99999999     hk      1.0000      0.0000   1
hk_135          fixed  factor    999999.0      0.0000000e+00       99999999     hk      1.0000      0.0000   1
hk_136          fixed  factor    999999.0      0.0000000e+00       99999999     hk      1.0000      0.0000   1
hk_137          fixed  factor    999999.0      0.0000000e+00       99999999     hk      1.0000      0.0000   1
hk_138          fixed  factor    999999.0      0.0000000e+00       99999999     hk      1.0000      0.0000   1
hk_139          fixed  factor    999999.0      0.0000000e+00       99999999     hk      1.0000      0.0000   1
hk_140          fixed  factor    999999.0      0.0000000e+00       99999999     hk      1.0000      0.0000   1
hk_141            log  factor   0.6514894      1.0000000e-05  1.0000000e+01     hk      1.0000      0.0000   1
hk_142            log  factor   0.7884496      1.0000000e-05  1.0000000e+01     hk      1.0000      0.0000   1
hk_143            log  factor   0.8865979      1.0000000e-05  1.0000000e+01     hk      1.0000      0.0000   1
hk_144            log  factor   0.8657922      1.0000000e-05  1.0000000e+01     hk      1.0000      0.0000   1
hk_145            log  factor   0.9009162      1.0000000e-05  1.0000000e+01     hk      1.0000      0.0000   1
hk_146            log  factor    1.059430      1.0000000e-05  1.0000000e+01     hk      1.0000      0.0000   1
hk_147            log  factor    1.096719      1.0000000e-05  1.0000000e+01     hk      1.0000      0.0000   1
hk_148          fixed  factor    999999.0      0.0000000e+00       99999999     hk      1.0000      0.0000   1
hk_149          fixed  factor    999999.0      0.0000000e+00       99999999     hk      1.0000      0.0000   1
hk_150          fixed  factor    999999.0      0.0000000e+00       99999999     hk      1.0000      0.0000   1
hk_151          fixed  factor    999999.0      0.0000000e+00       99999999     hk      1.0000      0.0000   1
hk_152          fixed  factor    999999.0      0.0000000e+00       99999999     hk      1.0000      0.0000   1
hk_153          fixed  factor    999999.0      0.0000000e+00       99999999     hk      1.0000      0.0000   1
hk_154          fixed  factor    999999.0      0.0000000e+00       99999999     hk      1.0000      0.0000   1
hk_155          fixed  factor    999999.0      0.0000000e+00       99999999     hk      1.0000      0.0000   1
hk_156            log  factor   0.6029310      1.0000000e-05  1.0000000e+01     hk      1.0000      0.0000   1
hk_157            log  factor   0.8945298      1.0000000e-05  1.0000000e+01     hk      1.0000      0.0000   1
hk_158            log  factor    1.335555      1.0000000e-05  1.0000000e+01     hk      1.0000      0.0000   1
hk_159            log  factor   0.7996742      1.0000000e-05  1.0000000e+01     hk      1.0000      0.0000   1
hk_160            log  factor   0.5594322      1.0000000e-05  1.0000000e+01     hk      1.0000      0.0000   1
hk_161            log  factor   0.7912339      1.0000000e-05  1.0000000e+01     hk      1.0000      0.0000   1
hk_162            log  factor   0.9508822      1.0000000e-05  1.0000000e+01     hk      1.0000      0.0000   1
hk_163            log  factor   0.9958655      1.0000000e-05  1.0000000e+01     hk      1.0000      0.0000   1
hk_164            log  factor   0.7449436      1.0000000e-05  1.0000000e+01     hk      1.0000      0.0000   1
hk_165            log  factor   0.8741644      1.0000000e-05  1.0000000e+01     hk      1.0000      0.0000   1
hk_166            log  factor   0.8104369      1.0000000e-05  1.0000000e+01     hk      1.0000      0.0000   1
hk_167            log  factor   0.5181063      1.0000000e-05  1.0000000e+01     hk      1.0000      0.0000   1
hk_168            log  factor   3.4563827E-05  1.0000000e-05  1.0000000e+01     hk      1.0000      0.0000   1
hk_169          fixed  factor    999999.0      0.0000000e+00       99999999     hk      1.0000      0.0000   1
hk_170          fixed  factor    999999.0      0.0000000e+00       99999999     hk      1.0000      0.0000   1
hk_171          fixed  factor    999999.0      0.0000000e+00       99999999     hk      1.0000      0.0000   1
hk_172          fixed  factor    999999.0      0.0000000e+00       99999999     hk      1.0000      0.0000   1
hk_173          fixed  factor    999999.0      0.0000000e+00       99999999     hk      1.0000      0.0000   1
hk_174          fixed  factor    999999.0      0.0000000e+00       99999999     hk      1.0000      0.0000   1
hk_175          fixed  factor    999999.0      0.0000000e+00       99999999     hk      1.0000      0.0000   1
hk_176            log  factor   0.8397064      1.0000000e-05  1.0000000e+01     hk      1.0000      0.0000   1
hk_177            log  factor   0.5864138      1.0000000e-05  1.0000000e+01     hk      1.0000      0.0000   1
hk_178            log  factor   0.6741928      1.0000000e-05  1.0000000e+01     hk      1.0000      0.0000   1
hk_179            log  factor   0.9365187      1.0000000e-05  1.0000000e+01     hk      1.0000      0.0000   1
hk_180            log  factor   0.6313496      1.0000000e-05  1.0000000e+01     hk      1.0000      0.0000   1
hk_181            log  factor   0.9715019      1.0000000e-05  1.0000000e+01     hk      1.0000      0.0000   1
hk_182            log  factor   0.5760377      1.0000000e-05  1.0000000e+01     hk      1.0000      0.0000   1
hk_183            log  factor   0.7918056      1.0000000e-05  1.0000000e+01     hk      1.0000      0.0000   1
hk_184            log  factor   0.8508348      1.0000000e-05  1.0000000e+01     hk      1.0000      0.0000   1
hk_185            log  factor   0.8151517      1.0000000e-05  1.0000000e+01     hk      1.0000      0.0000   1
hk_186            log  factor   0.7561651      1.0000000e-05  1.0000000e+01     hk      1.0000      0.0000   1
hk_187            log  factor   0.3356639      1.0000000e-05  1.0000000e+01     hk      1.0000      0.0000   1
hk_188            log  factor   3.0564937E-05  1.0000000e-05  1.0000000e+01     hk      1.0000      0.0000   1
hk_189          fixed  factor    999999.0      0.0000000e+00       99999999     hk      1.0000      0.0000   1
hk_190          fixed  factor    999999.0      0.0000000e+00       99999999     hk      1.0000      0.0000   1
hk_191          fixed  factor    999999.0      0.0000000e+00       99999999     hk      1.0000      0.0000   1
hk_192          fixed  factor    999999.0      0.0000000e+00       99999999     hk      1.0000      0.0000   1
hk_193          fixed  factor    999999.0      0.0000000e+00       99999999     hk      1.0000      0.0000   1
hk_194          fixed  factor    999999.0      0.0000000e+00       99999999     hk      1.0000      0.0000   1
hk_195          fixed  factor    999999.0      0.0000000e+00       99999999     hk      1.0000      0.0000   1
hk_196            log  factor   0.4046232      1.0000000e-05  1.0000000e+01     hk      1.0000      0.0000   1
hk_197            log  factor   0.4825673      1.0000000e-05  1.0000000e+01     hk      1.0000      0.0000   1
hk_198            log  factor   0.7675162      1.0000000e-05  1.0000000e+01     hk      1.0000      0.0000   1
hk_199            log  factor   0.8081366      1.0000000e-05  1.0000000e+01     hk      1.0000      0.0000   1
hk_200            log  factor    1.157356      1.0000000e-05  1.0000000e+01     hk      1.0000      0.0000   1
hk_201            log  factor   0.7936618      1.0000000e-05  1.0000000e+01     hk      1.0000      0.0000   1
hk_202            log  factor   0.8449401      1.0000000e-05  1.0000000e+01     hk      1.0000      0.0000   1
hk_203            log  factor   0.8143298      1.0000000e-05  1.0000000e+01     hk      1.0000      0.0000   1
hk_204            log  factor   0.7068194      1.0000000e-05  1.0000000e+01     hk      1.0000      0.0000   1
hk_205            log  factor   0.7724714      1.0000000e-05  1.0000000e+01     hk      1.0000      0.0000   1
hk_206            log  factor   0.7222182      1.0000000e-05  1.0000000e+01     hk      1.0000      0.0000   1
hk_207            log  factor   0.3883161      1.0000000e-05  1.0000000e+01     hk      1.0000      0.0000   1
hk_208            log  factor   7.4037196E-05  1.0000000e-05  1.0000000e+01     hk      1.0000      0.0000   1
hk_209            log  factor   1.0758251E-05  1.0000000e-05  1.0000000e+01     hk      1.0000      0.0000   1
hk_210            log  factor   1.0000000E-05  1.0000000e-05  1.0000000e+01     hk      1.0000      0.0000   1
hk_211          fixed  factor    999999.0      0.0000000e+00       99999999     hk      1.0000      0.0000   1
hk_212          fixed  factor    999999.0      0.0000000e+00       99999999     hk      1.0000      0.0000   1
hk_213          fixed  factor    999999.0      0.0000000e+00       99999999     hk      1.0000      0.0000   1
hk_214          fixed  factor    999999.0      0.0000000e+00       99999999     hk      1.0000      0.0000   1
hk_215          fixed  factor    999999.0      0.0000000e+00       99999999     hk      1.0000      0.0000   1
hk_216            log  factor   9.7947605E-05  1.0000000e-05  1.0000000e+01     hk      1.0000      0.0000   1
hk_217            log  factor   0.3244592      1.0000000e-05  1.0000000e+01     hk      1.0000      0.0000   1
hk_218            log  factor   0.6066569      1.0000000e-05  1.0000000e+01     hk      1.0000      0.0000   1
hk_219            log  factor   0.9775260      1.0000000e-05  1.0000000e+01     hk      1.0000      0.0000   1
hk_220            log  factor   0.8640797      1.0000000e-05  1.0000000e+01     hk      1.0000      0.0000   1
hk_221            log  factor   0.6920264      1.0000000e-05  1.0000000e+01     hk      1.0000      0.0000   1
hk_222            log  factor   0.7501130      1.0000000e-05  1.0000000e+01     hk      1.0000      0.0000   1
hk_223            log  factor   0.7679266      1.0000000e-05  1.0000000e+01     hk      1.0000      0.0000   1
hk_224            log  factor   0.6422546      1.0000000e-05  1.0000000e+01     hk      1.0000      0.0000   1
hk_225            log  factor   0.7303059      1.0000000e-05  1.0000000e+01     hk      1.0000      0.0000   1
hk_226            log  factor   0.8334327      1.0000000e-05  1.0000000e+01     hk      1.0000      0.0000   1
hk_227            log  factor   0.6309994      1.0000000e-05  1.0000000e+01     hk      1.0000      0.0000   1
hk_228            log  factor   0.1533276      1.0000000e-05  1.0000000e+01     hk      1.0000      0.0000   1
hk_229            log  factor   1.6100138E-05  1.0000000e-05  1.0000000e+01     hk      1.0000      0.0000   1
hk_230            log  factor   2.8868428E-05  1.0000000e-05  1.0000000e+01     hk      1.0000      0.0000   1
hk_231            log  factor   4.0941081E-04  1.0000000e-05  1.0000000e+01     hk      1.0000      0.0000   1
hk_232          fixed  factor    999999.0      0.0000000e+00       99999999     hk      1.0000      0.0000   1
hk_233          fixed  factor    999999.0      0.0000000e+00       99999999     hk      1.0000      0.0000   1
hk_234          fixed  factor    999999.0      0.0000000e+00       99999999     hk      1.0000      0.0000   1
hk_235          fixed  factor    999999.0      0.0000000e+00       99999999     hk      1.0000      0.0000   1
hk_236            log  factor   4.3660533E-05  1.0000000e-05  1.0000000e+01     hk      1.0000      0.0000   1
hk_237            log  factor   0.2132630      1.0000000e-05  1.0000000e+01     hk      1.0000      0.0000   1
hk_238            log  factor   0.6382197      1.0000000e-05  1.0000000e+01     hk      1.0000      0.0000   1
hk_239            log  factor   0.8621383      1.0000000e-05  1.0000000e+01     hk      1.0000      0.0000   1
hk_240            log  factor   0.5977650      1.0000000e-05  1.0000000e+01     hk      1.0000      0.0000   1
hk_241            log  factor   0.8644498      1.0000000e-05  1.0000000e+01     hk      1.0000      0.0000   1
hk_242            log  factor   0.9031554      1.0000000e-05  1.0000000e+01     hk      1.0000      0.0000   1
hk_243            log  factor   0.7523273      1.0000000e-05  1.0000000e+01     hk      1.0000      0.0000   1
hk_244            log  factor   0.6302611      1.0000000e-05  1.0000000e+01     hk      1.0000      0.0000   1
hk_245            log  factor   0.5860073      1.0000000e-05  1.0000000e+01     hk      1.0000      0.0000   1
hk_246            log  factor   0.5506038      1.0000000e-05  1.0000000e+01     hk      1.0000      0.0000   1
hk_247            log  factor   0.7938088      1.0000000e-05  1.0000000e+01     hk      1.0000      0.0000   1
hk_248            log  factor   0.2978000      1.0000000e-05  1.0000000e+01     hk      1.0000      0.0000   1
hk_249            log  factor   1.7534428E-05  1.0000000e-05  1.0000000e+01     hk      1.0000      0.0000   1
hk_250            log  factor   4.9217442E-02  1.0000000e-05  1.0000000e+01     hk      1.0000      0.0000   1
hk_251            log  factor    5.328255      1.0000000e-05  1.0000000e+01     hk      1.0000      0.0000   1
hk_252            log  factor    3.373616      1.0000000e-05  1.0000000e+01     hk      1.0000      0.0000   1
hk_253          fixed  factor    999999.0      0.0000000e+00       99999999     hk      1.0000      0.0000   1
hk_254          fixed  factor    999999.0      0.0000000e+00       99999999     hk      1.0000      0.0000   1
hk_255          fixed  factor    999999.0      0.0000000e+00       99999999     hk      1.0000      0.0000   1
hk_256            log  factor   9.8990824E-05  1.0000000e-05  1.0000000e+01     hk      1.0000      0.0000   1
hk_257            log  factor   0.3126542      1.0000000e-05  1.0000000e+01     hk      1.0000      0.0000   1
hk_258            log  factor   0.7217720      1.0000000e-05  1.0000000e+01     hk      1.0000      0.0000   1
hk_259            log  factor   0.5413542      1.0000000e-05  1.0000000e+01     hk      1.0000      0.0000   1
hk_260            log  factor   0.3122384      1.0000000e-05  1.0000000e+01     hk      1.0000      0.0000   1
hk_261            log  factor   0.5488350      1.0000000e-05  1.0000000e+01     hk      1.0000      0.0000   1