pcf
* control data
restart estimation
3 871 2 0 2
1  1  double  point  1  0  0
1.000000e+001  2.000000e+000  3.000000e-001  1.000000e-002  10
1.000000e+001  1.000000e+001  1.000000e-003
1.000000e-001 noaui
0  1.000000e-002  3  3  1.000000e-002  3 **** CONTROLS OPTIMIZATION: SEE PEST MANUAL ****
1  1  1
* parameter groups
Kh     relative   1.000000e-002  0.000000e+000  switch  2.000000e+000  parabolic
Rch    relative   1.000000e-002  0.000000e+000  switch  2.000000e+000  parabolic
* parameter data
Ksnake______	log   factor   7	 .7	 70	Kh     1.0      0.0 1
Rmiddle_____	none  factor   .001321	 .0001321	 .01321	Rch    -1.0     0.0 1
Rnorth______	none  factor   .002035	 .0002035	 .02035	Rch    -1.0     0.0 1
* observation groups
Head
Streamflow
* observation data
63 914.27	1.000000 Head
64 914.89	1.000000 Head
100 1003	1.000000 Head
101 959.79	1.000000 Head
102 966.17	1.000000 Head
103 961.84	1.000000 Head
106 966.08	1.000000 Head
109 992.18	1.000000 Head
110 968.56	1.000000 Head
111 970.5	1.000000 Head
112 951.65	1.000000 Head
113 967.56	1.000000 Head
114 971.71	1.000000 Head
115 979.41	1.000000 Head
116 1012.46	1.000000 Head
117 983.57	1.000000 Head
118 945.34	1.000000 Head
119 1046.09	1.000000 Head
120 1007.11	1.000000 Head
121 1051.5	1.000000 Head
122 972.28	1.000000 Head
125 1026.41	1.000000 Head
126 998.25	1.000000 Head
127 987.16	1.000000 Head
128 1015.99	1.000000 Head
129 1064.52	1.000000 Head
130 1003.67	1.000000 Head
131 1027.27	1.000000 Head
132 1018.74	1.000000 Head
133 1053.8	1.000000 Head
134 1048.92	1.000000 Head
135 1042.62	1.000000 Head
136 1050.53	1.000000 Head
137 1024.43	1.000000 Head
138 1067.58	1.000000 Head
139 1060.68	1.000000 Head
140 1061.17	1.000000 Head
141 1059.45	1.000000 Head
142 1045.77	1.000000 Head
143 1040.67	1.000000 Head
144 1039.32	1.000000 Head
145 1002.86	1.000000 Head
146 1039.38	1.000000 Head
147 1059.43	1.000000 Head
148 1068.87	1.000000 Head
149 1063.73	1.000000 Head
151 1061.78	1.000000 Head
152 1027.75	1.000000 Head
153 1035.38	1.000000 Head
154 1072.75	1.000000 Head
155 1109.57	1.000000 Head
156 1034.76	1.000000 Head
157 1036.72	1.000000 Head
158 1269.61	1.000000 Head
159 1233.9	1.000000 Head
160 1245.32	1.000000 Head
161 1136.96	1.000000 Head
162 1118.4	1.000000 Head
163 1287.38	1.000000 Head
165 1190.93	1.000000 Head
166 1219.02	1.000000 Head
167 1236.85	1.000000 Head
168 1240.91	1.000000 Head
169 1273.06	1.000000 Head
170 1251.01	1.000000 Head
171 1249.01	1.000000 Head
172 1283.61	1.000000 Head
174 1258.52	1.000000 Head
175 1271.54	1.000000 Head
176 1275.35	1.000000 Head
177 1276.59	1.000000 Head
178 1280.56	1.000000 Head
180 913.05	1.000000 Head
181 964.24	1.000000 Head
182 941.62	1.000000 Head
183 941.31	1.000000 Head
184 946.78	1.000000 Head
185 927.15	1.000000 Head
186 925.18	1.000000 Head
188 938.52	1.000000 Head
189 966.08	1.000000 Head
190 939.05	1.000000 Head
194 972.92	1.000000 Head
198 974.92	1.000000 Head
200 932	1.000000 Head
201 931.2	1.000000 Head
202 950.62	1.000000 Head
204 965.25	1.000000 Head
207 967.07	1.000000 Head
208 939.44	1.000000 Head
210 960.65	1.000000 Head
211 934.42	1.000000 Head
212 940.31	1.000000 Head
214 967.35	1.000000 Head
216 943	1.000000 Head
217 932.38	1.000000 Head
218 939.02	1.000000 Head
219 959.24	1.000000 Head
222 940.13	1.000000 Head
223 951.75	1.000000 Head
227 946.83	1.000000 Head
233 932.52	1.000000 Head
234 932.56	1.000000 Head
235 932.37	1.000000 Head
236 960.05	1.000000 Head
237 955.19	1.000000 Head
238 954.57	1.000000 Head
240 921.31	1.000000 Head
241 946.2	1.000000 Head
242 939.55	1.000000 Head
243 958.63	1.000000 Head
244 898.65	1.000000 Head
247 934.95	1.000000 Head
248 955.98	1.000000 Head
249 935.97	1.000000 Head
250 958.87	1.000000 Head
252 959.4	1.000000 Head
254 946.56	1.000000 Head
255 937.12	1.000000 Head
257 954.97	1.000000 Head
258 918.69	1.000000 Head
259 932.28	1.000000 Head
260 946.49	1.000000 Head
261 972.6	1.000000 Head
262 932.37	1.000000 Head
264 966.51	1.000000 Head
265 959.44	1.000000 Head
266 932.65	1.000000 Head
267 959.36	1.000000 Head
269 966.82	1.000000 Head
270 956.37	1.000000 Head
271 961.07	1.000000 Head
273 951.82	1.000000 Head
274 942.85	1.000000 Head
275 952.64	1.000000 Head
276 954.44	1.000000 Head
277 952.03	1.000000 Head
278 947.99	1.000000 Head
279 949.18	1.000000 Head
280 939.49	1.000000 Head
281 950.34	1.000000 Head
282 949.4	1.000000 Head
283 949.42	1.000000 Head
284 981.24	1.000000 Head
285 964.19	1.000000 Head
286 967.84	1.000000 Head
287 961.54	1.000000 Head
288 980.24	1.000000 Head
289 966.98	1.000000 Head
290 952.72	1.000000 Head
291 957.08	1.000000 Head
292 969.17	1.000000 Head
293 989.92	1.000000 Head
294 991.84	1.000000 Head
295 1008.99	1.000000 Head
296 1017.2	1.000000 Head
297 974.73	1.000000 Head
298 979.22	1.000000 Head
299 970.21	1.000000 Head
300 936.15	1.000000 Head
301 965.16	1.000000 Head
302 969.29	1.000000 Head
303 963.02	1.000000 Head
304 1013.3	1.000000 Head
305 981.07	1.000000 Head
306 973.51	1.000000 Head
308 990.62	1.000000 Head
310 975.04	1.000000 Head
311 988.36	1.000000 Head
312 989.79	1.000000 Head
313 972.81	1.000000 Head
318 973.82	1.000000 Head
319 974.08	1.000000 Head
320 974.97	1.000000 Head
321 978.2	1.000000 Head
322 971.54	1.000000 Head
323 959.65	1.000000 Head
324 962.74	1.000000 Head
325 1024.94	1.000000 Head
326 1020.26	1.000000 Head
327 1038.41	1.000000 Head
328 1034.64	1.000000 Head
329 1030.22	1.000000 Head
330 1007.05	1.000000 Head
331 1023.7	1.000000 Head
332 1025.45	1.000000 Head
333 979.22	1.000000 Head
334 1008.06	1.000000 Head
335 1059.22	1.000000 Head
336 1004.53	1.000000 Head
337 1043.82	1.000000 Head
339 978.09	1.000000 Head
341 1010.15	1.000000 Head
343 1010.49	1.000000 Head
344 1008.26	1.000000 Head
346 1000.24	1.000000 Head
347 1003.67	1.000000 Head
352 1020.06	1.000000 Head
355 1023.21	1.000000 Head
356 1028.96	1.000000 Head
358 1020.42	1.000000 Head
359 1028.98	1.000000 Head
360 1029.91	1.000000 Head
362 1029.69	1.000000 Head
366 1080	1.000000 Head
466 1082.44	1.000000 Head
467 1130.26	1.000000 Head
522 1241.85	1.000000 Head
687 972	1.000000 Head
698 974	1.000000 Head
726 960	1.000000 Head
727 963	1.000000 Head
728 998	1.000000 Head
729 1175	1.000000 Head
730 1015	1.000000 Head
731 965	1.000000 Head
732 1090	1.000000 Head
733 1181	1.000000 Head
734 1028	1.000000 Head
735 1058	1.000000 Head
736 1029	1.000000 Head
737 1080	1.000000 Head
738 1025	1.000000 Head
739 1035	1.000000 Head
740 971	1.000000 Head
741 1018	1.000000 Head
742 982	1.000000 Head
743 1072	1.000000 Head
744 1035	1.000000 Head
745 1003	1.000000 Head
746 1005	1.000000 Head
747 1030	1.000000 Head
748 1088	1.000000 Head
749 983	1.000000 Head
750 1064	1.000000 Head
751 1117	1.000000 Head
752 1065	1.000000 Head
753 961	1.000000 Head
754 1080	1.000000 Head
755 1125	1.000000 Head
756 972	1.000000 Head
757 1112	1.000000 Head
758 1032	1.000000 Head
759 1032	1.000000 Head
760 1032	1.000000 Head
761 995	1.000000 Head
762 995	1.000000 Head
763 1169	1.000000 Head
764 1033	1.000000 Head
765 967	1.000000 Head
766 999	1.000000 Head
767 952	1.000000 Head
768 1059	1.000000 Head
769 1022	1.000000 Head
770 990	1.000000 Head
771 1057	1.000000 Head
772 1008	1.000000 Head
773 1005	1.000000 Head
774 1008	1.000000 Head
775 1175	1.000000 Head
776 1210	1.000000 Head
777 1239	1.000000 Head
778 1250	1.000000 Head
779 1271	1.000000 Head
780 1282	1.000000 Head
781 1241	1.000000 Head
782 1272	1.000000 Head
783 1288	1.000000 Head
786 975	1.000000 Head
788 1051	1.000000 Head
795 1025	1.000000 Head
801 943	1.000000 Head
808 1047	1.000000 Head
809 1041	1.000000 Head
813 996	1.000000 Head
814 961	1.000000 Head
815 885	1.000000 Head
816 963	1.000000 Head
817 959	1.000000 Head
819 971	1.000000 Head
826 958	1.000000 Head
827 955	1.000000 Head
828 963	1.000000 Head
832 1055	1.000000 Head
837 1062	1.000000 Head
842 971	1.000000 Head
843 1049	1.000000 Head
844 1043	1.000000 Head
849 960	1.000000 Head
854 903	1.000000 Head
855 880	1.000000 Head
856 945	1.000000 Head
857 960	1.000000 Head
860 953	1.000000 Head
863 951	1.000000 Head
864 963	1.000000 Head
866 969	1.000000 Head
872 889	1.000000 Head
873 913	1.000000 Head
874 1045	1.000000 Head
876 902	1.000000 Head
877 939	1.000000 Head
878 953	1.000000 Head
879 949	1.000000 Head
882 886	1.000000 Head
888 1077	1.000000 Head
894 988	1.000000 Head
899 1018	1.000000 Head
903 1012	1.000000 Head
905 993	1.000000 Head
918 1003	1.000000 Head
919 985	1.000000 Head
920 953	1.000000 Head
922 1269	1.000000 Head
923 982	1.000000 Head
926 1018	1.000000 Head
927 983	1.000000 Head
930 951	1.000000 Head
931 1060	1.000000 Head
933 971	1.000000 Head
935 972	1.000000 Head
937 985	1.000000 Head
938 951	1.000000 Head
939 948	1.000000 Head
942 997	1.000000 Head
943 978	1.000000 Head
945 1005	1.000000 Head
946 1017	1.000000 Head
947 944	1.000000 Head
948 1018	1.000000 Head
953 964	1.000000 Head
956 998	1.000000 Head
959 981	1.000000 Head
963 963	1.000000 Head
964 976	1.000000 Head
967 992	1.000000 Head
968 1036	1.000000 Head
974 992	1.000000 Head
980 1004	1.000000 Head
982 997	1.000000 Head
983 1002	1.000000 Head
987 1018	1.000000 Head
990 940	1.000000 Head
992 949	1.000000 Head
994 1028	1.000000 Head
997 962	1.000000 Head
1004 975	1.000000 Head
1009 940	1.000000 Head
1011 941	1.000000 Head
1014 904	1.000000 Head
1015 952	1.000000 Head
1018 948	1.000000 Head
1019 1057	1.000000 Head
1024 992	1.000000 Head
1025 948	1.000000 Head
1028 895	1.000000 Head
1029 911	1.000000 Head
1034 1026	1.000000 Head
1035 1022	1.000000 Head
1040 1062	1.000000 Head
1042 977	1.000000 Head
1043 1159	1.000000 Head
1050 1015	1.000000 Head
1056 941	1.000000 Head
1059 1035	1.000000 Head
1061 983	1.000000 Head
1063 943	1.000000 Head
1075 971	1.000000 Head
1079 949	1.000000 Head
1080 911	1.000000 Head
1082 952	1.000000 Head
1086 1088	1.000000 Head
1088 1019	1.000000 Head
1095 980	1.000000 Head
1101 955	1.000000 Head
1102 1162	1.000000 Head
1103 983	1.000000 Head
1104 1019	1.000000 Head
1106 957	1.000000 Head
1107 978	1.000000 Head
1108 952	1.000000 Head
1111 977	1.000000 Head
1112 1081	1.000000 Head
1114 995	1.000000 Head
1120 950	1.000000 Head
1123 972	1.000000 Head
1124 1078	1.000000 Head
1126 925	1.000000 Head
1129 970	1.000000 Head
1131 949	1.000000 Head
1133 1012	1.000000 Head
1135 939	1.000000 Head
1138 938	1.000000 Head
1142 950	1.000000 Head
1143 941	1.000000 Head
1146 971	1.000000 Head
1147 974	1.000000 Head
1149 972	1.000000 Head
1150 988	1.000000 Head
1153 953	1.000000 Head
1154 965	1.000000 Head
1157 1020	1.000000 Head
1158 971	1.000000 Head
1159 1017	1.000000 Head
1160 1025	1.000000 Head
1161 943	1.000000 Head
1162 1052	1.000000 Head
1163 1032	1.000000 Head
1164 1025	1.000000 Head
1167 949	1.000000 Head
1170 972	1.000000 Head
1171 981	1.000000 Head
1172 998	1.000000 Head
1177 943	1.000000 Head
1180 972	1.000000 Head
1182 1024	1.000000 Head
1185 998	1.000000 Head
1187 975	1.000000 Head
1188 1030	1.000000 Head
1189 971	1.000000 Head
1190 968	1.000000 Head
1191 988	1.000000 Head
1192 975	1.000000 Head
1193 943	1.000000 Head
1194 1012	1.000000 Head
1196 944	1.000000 Head
1197 969	1.000000 Head
1198 949	1.000000 Head
1202 958	1.000000 Head
1207 972	1.000000 Head
1210 972	1.000000 Head
1215 1023	1.000000 Head
1217 942	1.000000 Head
1218 962	1.000000 Head
1220 957	1.000000 Head
1221 1003	1.000000 Head
1223 968	1.000000 Head
1226 988	1.000000 Head
1227 920	1.000000 Head
1228 940	1.000000 Head
1232 1160	1.000000 Head
1233 954	1.000000 Head
1235 945	1.000000 Head
1239 1020	1.000000 Head
1242 990	1.000000 Head
1243 980	1.000000 Head
1247 957	1.000000 Head
1248 1009	1.000000 Head
1253 942	1.000000 Head
1255 944	1.000000 Head
1256 945	1.000000 Head
1260 904	1.000000 Head
1269 945	1.000000 Head
1274 944	1.000000 Head
1275 984	1.000000 Head
1279 973	1.000000 Head
1280 953	1.000000 Head
1283 940	1.000000 Head
1289 1014	1.000000 Head
1290 952	1.000000 Head
1291 941	1.000000 Head
1292 964	1.000000 Head
1294 1032	1.000000 Head
1295 980	1.000000 Head
1299 949	1.000000 Head
1304 927	1.000000 Head
1306 951	1.000000 Head
1312 949	1.000000 Head
1313 1010	1.000000 Head
1314 975	1.000000 Head
1315 971	1.000000 Head
1319 956	1.000000 Head
1322 949	1.000000 Head
1327 960	1.000000 Head
1335 914	1.000000 Head
1340 1091	1.000000 Head
1342 999	1.000000 Head
1344 1031	1.000000 Head
1346 955	1.000000 Head
1347 969	1.000000 Head
1348 952	1.000000 Head
1350 1141	1.000000 Head
1353 890	1.000000 Head
1356 959	1.000000 Head
1360 989	1.000000 Head
1361 953	1.000000 Head
1364 935	1.000000 Head
1365 954	1.000000 Head
1366 967	1.000000 Head
1368 970	1.000000 Head
1373 949	1.000000 Head
1374 952	1.000000 Head
1376 951	1.000000 Head
1381 937	1.000000 Head
1385 1015	1.000000 Head
1386 941	1.000000 Head
1388 1023	1.000000 Head
1391 980	1.000000 Head
1393 953	1.000000 Head
1397 1000	1.000000 Head
1399 941	1.000000 Head
1400 983	1.000000 Head
1401 991	1.000000 Head
1403 949	1.000000 Head
1404 1238	1.000000 Head
1405 953	1.000000 Head
1408 1022	1.000000 Head
1409 957	1.000000 Head
1410 1018	1.000000 Head
1419 1040	1.000000 Head
1423 988	1.000000 Head
1424 1029	1.000000 Head
1425 900	1.000000 Head
1426 954	1.000000 Head
1430 972	1.000000 Head
1431 972	1.000000 Head
1439 953	1.000000 Head
1441 942	1.000000 Head
1444 959	1.000000 Head
1445 954	1.000000 Head
1446 976	1.000000 Head
1447 950	1.000000 Head
1450 951	1.000000 Head
1452 948	1.000000 Head
1453 992	1.000000 Head
1458 1022	1.000000 Head
1459 972	1.000000 Head
1460 963	1.000000 Head
1461 1060	1.000000 Head
1464 998	1.000000 Head
1468 969	1.000000 Head
1469 901	1.000000 Head
1473 923	1.000000 Head
1474 953	1.000000 Head
1476 911	1.000000 Head
1477 912	1.000000 Head
1478 1022	1.000000 Head
1480 962	1.000000 Head
1482 944	1.000000 Head
1484 1002	1.000000 Head
1487 958	1.000000 Head
1491 1141	1.000000 Head
1494 976	1.000000 Head
1495 983	1.000000 Head
1496 922	1.000000 Head
1498 1110	1.000000 Head
1499 951	1.000000 Head
1502 1030	1.000000 Head
1507 954	1.000000 Head
1510 976	1.000000 Head
1512 1024	1.000000 Head
1513 952	1.000000 Head
1514 958	1.000000 Head
1515 969	1.000000 Head
1521 959	1.000000 Head
1522 922	1.000000 Head
1524 953	1.000000 Head
1525 961	1.000000 Head
1526 987	1.000000 Head
1531 950	1.000000 Head
1536 943	1.000000 Head
1540 952	1.000000 Head
1542 973	1.000000 Head
1547 939	1.000000 Head
1548 921	1.000000 Head
1549 1001	1.000000 Head
1552 954	1.000000 Head
1555 940	1.000000 Head
1559 964	1.000000 Head
1563 1056	1.000000 Head
1564 960	1.000000 Head
1565 900	1.000000 Head
1566 934	1.000000 Head
1570 948	1.000000 Head
1571 1032	1.000000 Head
1572 1084	1.000000 Head
1573 975	1.000000 Head
1574 1032	1.000000 Head
1575 957	1.000000 Head
1576 1032	1.000000 Head
1577 1032	1.000000 Head
1578 1007	1.000000 Head
1579 1032	1.000000 Head
1580 1032	1.000000 Head
1582 967	1.000000 Head
1585 1082	1.000000 Head
1587 986	1.000000 Head
1589 960	1.000000 Head
1590 1040	1.000000 Head
1591 952	1.000000 Head
1592 1018	1.000000 Head
1593 937	1.000000 Head
1600 952	1.000000 Head
1601 932	1.000000 Head
1602 982	1.000000 Head
1606 953	1.000000 Head
1608 950	1.000000 Head
1615 1069	1.000000 Head
1616 993	1.000000 Head
1618 1032	1.000000 Head
1621 1026	1.000000 Head
1622 1025	1.000000 Head
1625 1012	1.000000 Head
1626 973	1.000000 Head
1627 1021	1.000000 Head
1628 1033	1.000000 Head
1629 1033	1.000000 Head
1630 1033	1.000000 Head
1631 1090	1.000000 Head
1633 935	1.000000 Head
1634 1025	1.000000 Head
1635 1026	1.000000 Head
1636 1026	1.000000 Head
1641 962	1.000000 Head
1642 986	1.000000 Head
1645 945	1.000000 Head
1646 945	1.000000 Head
1647 1014	1.000000 Head
1651 954	1.000000 Head
1654 972	1.000000 Head
1655 1090	1.000000 Head
1656 1033	1.000000 Head
1658 958	1.000000 Head
1659 947	1.000000 Head
1662 1026	1.000000 Head
1663 939	1.000000 Head
1664 946	1.000000 Head
1666 948	1.000000 Head
1667 976	1.000000 Head
1671 937	1.000000 Head
1672 992	1.000000 Head
1674 973	1.000000 Head
1675 944	1.000000 Head
1676 972	1.000000 Head
1677 1065	1.000000 Head
1679 1020	1.000000 Head
1687 998	1.000000 Head
1690 958	1.000000 Head
1691 944	1.000000 Head
1693 1154	1.000000 Head
1695 900	1.000000 Head
1701 956	1.000000 Head
1702 981	1.000000 Head
1704 942	1.000000 Head
1710 942	1.000000 Head
1713 960	1.000000 Head
1714 945	1.000000 Head
1716 941	1.000000 Head
1719 936	1.000000 Head
1721 1007	1.000000 Head
1722 948	1.000000 Head
1723 965	1.000000 Head
1724 961	1.000000 Head
1725 978	1.000000 Head
1726 970	1.000000 Head
1727 952	1.000000 Head
1728 962	1.000000 Head
1731 950	1.000000 Head
1741 1053	1.000000 Head
1743 941	1.000000 Head
1744 955	1.000000 Head
1746 963	1.000000 Head
1748 913	1.000000 Head
1751 971	1.000000 Head
1756 938	1.000000 Head
1758 1037	1.000000 Head
1759 1033	1.000000 Head
1760 952	1.000000 Head
1766 976	1.000000 Head
1767 990	1.000000 Head
1768 950	1.000000 Head
1769 963	1.000000 Head
1770 1012	1.000000 Head
1771 964	1.000000 Head
1772 960	1.000000 Head
1773 972	1.000000 Head
1774 972	1.000000 Head
1777 950	1.000000 Head
1778 978	1.000000 Head
1785 958	1.000000 Head
1788 951	1.000000 Head
1792 939	1.000000 Head
1796 1012	1.000000 Head
1799 962	1.000000 Head
1803 984	1.000000 Head
1807 952	1.000000 Head
1808 948	1.000000 Head
1809 1031	1.000000 Head
1810 1019	1.000000 Head
1812 988	1.000000 Head
1819 957	1.000000 Head
1820 950	1.000000 Head
1821 1065	1.000000 Head
1828 955	1.000000 Head
1832 948	1.000000 Head
1833 954	1.000000 Head
1834 962	1.000000 Head
1837 963	1.000000 Head
1843 957	1.000000 Head
1845 943	1.000000 Head
1846 952	1.000000 Head
1851 982	1.000000 Head
1852 980	1.000000 Head
1853 898	1.000000 Head
1857 957	1.000000 Head
1858 930	1.000000 Head
1862 890	1.000000 Head
1869 953	1.000000 Head
1872 962	1.000000 Head
1875 994	1.000000 Head
1876 950	1.000000 Head
1877 990	1.000000 Head
1880 1040	1.000000 Head
1882 983	1.000000 Head
1885 961	1.000000 Head
1886 963	1.000000 Head
1887 977	1.000000 Head
1891 956	1.000000 Head
1892 1035	1.000000 Head
1893 1035	1.000000 Head
1894 1035	1.000000 Head
1895 948	1.000000 Head
1899 996	1.000000 Head
1900 1031	1.000000 Head
1902 1089	1.000000 Head
1903 1029	1.000000 Head
1905 1014	1.000000 Head
1909 943	1.000000 Head
1910 936	1.000000 Head
1919 1005	1.000000 Head
1923 1044	1.000000 Head
1925 944	1.000000 Head
1930 972	1.000000 Head
1935 960	1.000000 Head
1936 951	1.000000 Head
1937 952	1.000000 Head
1938 991	1.000000 Head
1940 1034	1.000000 Head
1941 953	1.000000 Head
1942 949	1.000000 Head
1943 954	1.000000 Head
1946 1020	1.000000 Head
1948 965	1.000000 Head
1957 951	1.000000 Head
1958 954	1.000000 Head
1968 951	1.000000 Head
1969 952	1.000000 Head
1974 973	1.000000 Head
1977 1015	1.000000 Head
1978 938	1.000000 Head
1980 888	1.000000 Head
1982 945	1.000000 Head
1983 985	1.000000 Head
1985 981	1.000000 Head
1988 964	1.000000 Head
1989 969	1.000000 Head
1991 972	1.000000 Head
1992 975	1.000000 Head
1993 1001	1.000000 Head
2003 954	1.000000 Head
2007 948	1.000000 Head
2021 894	1.000000 Head
2022 942	1.000000 Head
2026 944	1.000000 Head
2029 996	1.000000 Head
2031 969	1.000000 Head
2032 993	1.000000 Head
2033 966	1.000000 Head
2034 1030	1.000000 Head
2037 956	1.000000 Head
2039 951	1.000000 Head
2040 991	1.000000 Head
2043 950	1.000000 Head
2044 992	1.000000 Head
2050 954	1.000000 Head
2051 982	1.000000 Head
2056 942	1.000000 Head
2057 1011	1.000000 Head
2058 1119	1.000000 Head
2060 935	1.000000 Head
2061 952	1.000000 Head
2067 960	1.000000 Head
2073 950	1.000000 Head
2074 973	1.000000 Head
2075 946	1.000000 Head
2077 958	1.000000 Head
2081 951	1.000000 Head
2082 962	1.000000 Head
2083 980	1.000000 Head
2084 1067	1.000000 Head
2085 989	1.000000 Head
2087 985	1.000000 Head
2091 1025	1.000000 Head
2095 954	1.000000 Head
2096 945	1.000000 Head
2098 1146	1.000000 Head
2099 1156	1.000000 Head
2109 1015	1.000000 Head
2110 992	1.000000 Head
2112 950	1.000000 Head
2127 1002	1.000000 Head
2141 973	1.000000 Head
2143 947	1.000000 Head
2844 1321	1.000000 Head
2846 1249.31	1.000000 Head
2847 1250.5	1.000000 Head
2848 1250.5	1.000000 Head
2849 1232.54	1.000000 Head
2850 1246.65	1.000000 Head
2851 1247.85	1.000000 Head
2853 1249.32	1.000000 Head
2854 1270.98	1.000000 Head
2855 1302.29	1.000000 Head
2857 1298	1.000000 Head
2858 1301	1.000000 Head
2859 1305	1.000000 Head
2860 1314	1.000000 Head
2861 1270	1.000000 Head
2862 1316	1.000000 Head
2863 1292	1.000000 Head
2864 1292	1.000000 Head
2865 1256	1.000000 Head
2866 1301	1.000000 Head
2867 1288	1.000000 Head
2868 1263	1.000000 Head
2869 1262	1.000000 Head
2871 1303	1.000000 Head
2872 1344	1.000000 Head
2873 1098	1.000000 Head
2874 1274	1.000000 Head
2875 1251	1.000000 Head
2876 1282	1.000000 Head
2877 1128	1.000000 Head
2878 1253	1.000000 Head
2879 1252	1.000000 Head
2880 1252	1.000000 Head
2881 1258	1.000000 Head
2882 1255	1.000000 Head
2883 1252	1.000000 Head
2884 1233	1.000000 Head
2885 1292	1.000000 Head
2886 1260	1.000000 Head
2887 1200	1.000000 Head
2888 1209	1.000000 Head
2889 1252	1.000000 Head
2890 1272	1.000000 Head
2891 1305	1.000000 Head
3502 945	1.000000 Head
3530 917	1.000000 Head
3586 919	1.000000 Head
3594 918	1.000000 Head
3613 923	1.000000 Head
3658 932	1.000000 Head
3665 953	1.000000 Head
3671 915	1.000000 Head
3698 920	1.000000 Head
3724 937	1.000000 Head
3757 921	1.000000 Head
3798 921	1.000000 Head
3804 928	1.000000 Head
3821 917	1.000000 Head
3858 975	1.000000 Head
3859 963	1.000000 Head
3860 1150	1.000000 Head
3861 1282	1.000000 Head
3862 1280	1.000000 Head
3863 1250	1.000000 Head
3864 1272	1.000000 Head
3867 1014	1.000000 Head
Snake 19120320	0.000100 Streamflow
Knife 1848960	0.000100 Streamflow
* model command line
G-PEST.bat
* model input/output
SnakeP.tpl SnakeP.DAT
SnakeP.ins SnakeP.XTR
