pcf
* control data
restart estimation
2 521 2 0 2
1  1  double  point  1  0  0
1.000000e+001  2.000000e+000  3.000000e-001  1.000000e-002  10
1.000000e+001  1.000000e+001  1.000000e-003
1.000000e-001 noaui
0  1.000000e-002  3  3  1.000000e-002  3 **** CONTROLS OPTIMIZATION: SEE PEST MANUAL ****
1  1  1
* parameter groups
Kh     relative   1.000000e-002  0.000000e+000  switch  2.000000e+000  parabolic
Rch    relative   1.000000e-002  0.000000e+000  switch  2.000000e+000  parabolic
* parameter data
Kmidwest____	log   factor   11.6508	 1.16508	 116.508	Kh     1.0      0.0 1
Rsouth______	none  factor   .001237533	 .0001237533	 .01237533	Rch    -1.0     0.0 1
* observation groups
Head
Streamflow
* observation data
23 908.89	0.100000 Head
25 909.31	0.100000 Head
26 885.26	0.100000 Head
27 918.62	0.100000 Head
29 904.55	0.100000 Head
31 910.25	0.100000 Head
33 878.9	0.100000 Head
34 914.32	0.100000 Head
35 914.69	0.100000 Head
36 875.69	0.100000 Head
37 894.09	0.100000 Head
38 893.52	0.100000 Head
39 900.99	0.100000 Head
40 913.59	0.100000 Head
41 865.2	0.100000 Head
42 919.74	0.100000 Head
43 919.31	0.100000 Head
44 911.27	0.100000 Head
48 907.13	0.100000 Head
65 911.64	0.100000 Head
66 922.28	0.100000 Head
67 910.78	0.100000 Head
71 901.14	0.100000 Head
72 914.16	0.100000 Head
73 920.17	0.100000 Head
74 920.17	0.100000 Head
75 929.88	0.100000 Head
76 918.91	0.100000 Head
77 917.89	0.100000 Head
79 921.39	0.100000 Head
80 919.12	0.100000 Head
81 922.12	0.100000 Head
83 924.9	0.100000 Head
84 916.45	0.100000 Head
87 909.32	0.100000 Head
88 910.83	0.100000 Head
89 950.91	0.100000 Head
90 966.43	0.100000 Head
91 975.13	0.100000 Head
96 920.62	0.100000 Head
97 953.73	0.100000 Head
98 980.24	0.100000 Head
99 975.45	0.100000 Head
688 966	0.100000 Head
689 910	0.100000 Head
690 915	0.100000 Head
691 901	0.100000 Head
692 918	0.100000 Head
693 921	0.100000 Head
694 910	0.100000 Head
699 910	0.100000 Head
700 931	0.100000 Head
701 900	0.100000 Head
702 920	0.100000 Head
703 920	0.100000 Head
704 924	0.100000 Head
708 945	0.100000 Head
709 950	0.100000 Head
710 921	0.100000 Head
711 980	0.100000 Head
712 953	0.100000 Head
713 970	0.100000 Head
714 910	0.100000 Head
715 921	0.100000 Head
716 922	0.100000 Head
717 923	0.100000 Head
719 916	0.100000 Head
720 923	0.100000 Head
722 930	0.100000 Head
723 912	0.100000 Head
724 919	0.100000 Head
2893 915	0.100000 Head
2894 912	0.100000 Head
2897 908	0.100000 Head
2898 913	0.100000 Head
2899 903	0.100000 Head
2900 906	0.100000 Head
2901 907	0.100000 Head
2902 911	0.100000 Head
2903 906	0.100000 Head
2905 910	0.100000 Head
2910 920	0.100000 Head
2914 911	0.100000 Head
2915 916	0.100000 Head
2917 902	0.100000 Head
2918 912	0.100000 Head
2920 922	0.100000 Head
2921 911	0.100000 Head
2924 905	0.100000 Head
2925 908	0.100000 Head
2929 917	0.100000 Head
2930 920	0.100000 Head
2931 910	0.100000 Head
2932 900	0.100000 Head
2936 903	0.100000 Head
2938 911	0.100000 Head
2939 899	0.100000 Head
2943 922	0.100000 Head
2944 905	0.100000 Head
2945 911	0.100000 Head
2946 910	0.100000 Head
2948 912	0.100000 Head
2955 920	0.100000 Head
2956 900	0.100000 Head
2958 911	0.100000 Head
2960 917	0.100000 Head
2962 905	0.100000 Head
2963 902	0.100000 Head
2964 905	0.100000 Head
2966 918	0.100000 Head
2967 910	0.100000 Head
2969 910	0.100000 Head
2970 912	0.100000 Head
2971 910	0.100000 Head
2974 911	0.100000 Head
2975 904	0.100000 Head
2976 910	0.100000 Head
2977 911	0.100000 Head
2978 912	0.100000 Head
2981 923	0.100000 Head
2982 900	0.100000 Head
2989 911	0.100000 Head
2990 910	0.100000 Head
2991 920	0.100000 Head
2993 912	0.100000 Head
2997 914	0.100000 Head
2998 912	0.100000 Head
2999 911	0.100000 Head
3000 923	0.100000 Head
3003 909	0.100000 Head
3004 911	0.100000 Head
3005 911	0.100000 Head
3006 905	0.100000 Head
3010 915	0.100000 Head
3011 910	0.100000 Head
3012 898	0.100000 Head
3018 927	0.100000 Head
3019 905	0.100000 Head
3021 905	0.100000 Head
3022 913	0.100000 Head
3023 915	0.100000 Head
3026 905	0.100000 Head
3027 925	0.100000 Head
3030 905	0.100000 Head
3031 912	0.100000 Head
3032 918	0.100000 Head
3034 915	0.100000 Head
3035 905	0.100000 Head
3038 915	0.100000 Head
3039 895	0.100000 Head
3041 910	0.100000 Head
3042 915	0.100000 Head
3043 912	0.100000 Head
3046 905	0.100000 Head
3052 925	0.100000 Head
3054 910	0.100000 Head
3058 905	0.100000 Head
3061 912	0.100000 Head
3063 925	0.100000 Head
3065 905	0.100000 Head
3066 910	0.100000 Head
3067 925	0.100000 Head
3068 900	0.100000 Head
3069 922	0.100000 Head
3071 915	0.100000 Head
3072 915	0.100000 Head
3074 910	0.100000 Head
3075 905	0.100000 Head
3076 915	0.100000 Head
3077 905	0.100000 Head
3078 905	0.100000 Head
3079 908	0.100000 Head
3080 915	0.100000 Head
3085 925	0.100000 Head
3086 900	0.100000 Head
3087 912	0.100000 Head
3088 898	0.100000 Head
3092 902	0.100000 Head
3095 899	0.100000 Head
3096 905	0.100000 Head
3097 900	0.100000 Head
3098 912	0.100000 Head
3099 913	0.100000 Head
3100 912	0.100000 Head
3102 925	0.100000 Head
3103 900	0.100000 Head
3107 925	0.100000 Head
3109 905	0.100000 Head
3111 910	0.100000 Head
3112 907	0.100000 Head
3113 920	0.100000 Head
3115 910	0.100000 Head
3116 905	0.100000 Head
3117 912	0.100000 Head
3118 912	0.100000 Head
3119 900	0.100000 Head
3120 910	0.100000 Head
3122 915	0.100000 Head
3123 905	0.100000 Head
3124 910	0.100000 Head
3125 912	0.100000 Head
3126 912	0.100000 Head
3127 912	0.100000 Head
3128 908	0.100000 Head
3129 910	0.100000 Head
3130 925	0.100000 Head
3131 900	0.100000 Head
3132 915	0.100000 Head
3133 915	0.100000 Head
3135 910	0.100000 Head
3136 918	0.100000 Head
3137 905	0.100000 Head
3138 910	0.100000 Head
3140 910	0.100000 Head
3141 910	0.100000 Head
3143 918	0.100000 Head
3145 910	0.100000 Head
3148 905	0.100000 Head
3150 918	0.100000 Head
3151 915	0.100000 Head
3152 898	0.100000 Head
3153 908	0.100000 Head
3154 915	0.100000 Head
3155 908	0.100000 Head
3156 905	0.100000 Head
3157 902	0.100000 Head
3158 908	0.100000 Head
3159 912	0.100000 Head
3165 902	0.100000 Head
3166 898	0.100000 Head
3167 898	0.100000 Head
3173 915	0.100000 Head
3175 915	0.100000 Head
3176 908	0.100000 Head
3178 895	0.100000 Head
3179 902	0.100000 Head
3180 902	0.100000 Head
3184 908	0.100000 Head
3186 918	0.100000 Head
3191 912	0.100000 Head
3193 898	0.100000 Head
3195 918	0.100000 Head
3196 905	0.100000 Head
3197 928	0.100000 Head
3198 908	0.100000 Head
3199 912	0.100000 Head
3200 908	0.100000 Head
3201 908	0.100000 Head
3206 905	0.100000 Head
3207 908	0.100000 Head
3210 915	0.100000 Head
3211 915	0.100000 Head
3212 905	0.100000 Head
3215 912	0.100000 Head
3216 902	0.100000 Head
3218 902	0.100000 Head
3219 918	0.100000 Head
3221 915	0.100000 Head
3223 902	0.100000 Head
3225 892	0.100000 Head
3226 905	0.100000 Head
3228 908	0.100000 Head
3254 900.84	0.100000 Head
3255 914.61	0.100000 Head
3257 920.54	0.100000 Head
3258 908.23	0.100000 Head
3259 909.47	0.100000 Head
3260 910.2	0.100000 Head
3261 897	0.100000 Head
3262 905.64	0.100000 Head
3265 908.42	0.100000 Head
3267 908.97	0.100000 Head
3268 909.42	0.100000 Head
3269 910.01	0.100000 Head
3270 900.51	0.100000 Head
3271 918.41	0.100000 Head
3272 905.79	0.100000 Head
3275 899.65	0.100000 Head
3280 900.38	0.100000 Head
3283 919.26	0.100000 Head
3284 905.69	0.100000 Head
3285 909.01	0.100000 Head
3286 902.85	0.100000 Head
3287 915.63	0.100000 Head
3288 922.17	0.100000 Head
3289 917.45	0.100000 Head
3292 900.74	0.100000 Head
3293 914.94	0.100000 Head
3294 895.76	0.100000 Head
3295 891.3	0.100000 Head
3296 897.09	0.100000 Head
3297 914.1	0.100000 Head
3299 908.38	0.100000 Head
3300 909.78	0.100000 Head
3301 907.63	0.100000 Head
3302 892.73	0.100000 Head
3303 911.54	0.100000 Head
3304 917.34	0.100000 Head
3305 909.3	0.100000 Head
3306 913.81	0.100000 Head
3307 910.32	0.100000 Head
3308 910.44	0.100000 Head
3309 911.86	0.100000 Head
3310 911.53	0.100000 Head
3311 910.45	0.100000 Head
3312 909.57	0.100000 Head
3313 912.68	0.100000 Head
3314 903.87	0.100000 Head
3315 906.76	0.100000 Head
3316 911.98	0.100000 Head
3319 913.67	0.100000 Head
3322 909.72	0.100000 Head
3323 900.16	0.100000 Head
3324 910.32	0.100000 Head
3325 899.63	0.100000 Head
3326 891.3	0.100000 Head
3327 900.1	0.100000 Head
3328 910.7	0.100000 Head
3329 915.63	0.100000 Head
3330 908.51	0.100000 Head
3332 915.04	0.100000 Head
3334 909.88	0.100000 Head
3335 910.54	0.100000 Head
3336 910.82	0.100000 Head
3337 903.46	0.100000 Head
3338 901.33	0.100000 Head
3340 902.37	0.100000 Head
3481 894	0.100000 Head
3483 869	0.100000 Head
3484 860	0.100000 Head
3485 906	0.100000 Head
3486 902	0.100000 Head
3487 910	0.100000 Head
3488 895	0.100000 Head
3491 914	0.100000 Head
3493 915	0.100000 Head
3495 888	0.100000 Head
3496 890	0.100000 Head
3497 922	0.100000 Head
3498 915	0.100000 Head
3499 912	0.100000 Head
3500 910	0.100000 Head
3506 922	0.100000 Head
3512 903	0.100000 Head
3514 882	0.100000 Head
3515 895	0.100000 Head
3519 903	0.100000 Head
3521 902	0.100000 Head
3522 892	0.100000 Head
3524 895	0.100000 Head
3525 885	0.100000 Head
3531 891	0.100000 Head
3532 882	0.100000 Head
3537 918	0.100000 Head
3542 918	0.100000 Head
3546 885	0.100000 Head
3548 875	0.100000 Head
3552 895	0.100000 Head
3553 901	0.100000 Head
3554 908	0.100000 Head
3555 874	0.100000 Head
3557 918	0.100000 Head
3558 905	0.100000 Head
3562 904	0.100000 Head
3570 918	0.100000 Head
3571 914	0.100000 Head
3575 920	0.100000 Head
3576 912	0.100000 Head
3578 870	0.100000 Head
3579 914	0.100000 Head
3580 893	0.100000 Head
3583 930	0.100000 Head
3587 860	0.100000 Head
3588 901	0.100000 Head
3590 911	0.100000 Head
3592 911	0.100000 Head
3595 898	0.100000 Head
3596 917	0.100000 Head
3599 911	0.100000 Head
3602 912	0.100000 Head
3603 890	0.100000 Head
3604 910	0.100000 Head
3605 908	0.100000 Head
3606 870	0.100000 Head
3607 902	0.100000 Head
3608 910	0.100000 Head
3610 913	0.100000 Head
3611 915	0.100000 Head
3612 910	0.100000 Head
3615 881	0.100000 Head
3618 930	0.100000 Head
3621 922	0.100000 Head
3622 892	0.100000 Head
3623 927	0.100000 Head
3626 813	0.100000 Head
3627 927	0.100000 Head
3628 908	0.100000 Head
3630 875	0.100000 Head
3631 850	0.100000 Head
3632 850	0.100000 Head
3633 850	0.100000 Head
3634 855	0.100000 Head
3635 855	0.100000 Head
3636 855	0.100000 Head
3637 921	0.100000 Head
3639 863	0.100000 Head
3641 960	0.100000 Head
3642 915	0.100000 Head
3643 920	0.100000 Head
3647 925	0.100000 Head
3648 914	0.100000 Head
3650 908	0.100000 Head
3651 895	0.100000 Head
3652 910	0.100000 Head
3653 895	0.100000 Head
3655 844	0.100000 Head
3659 912	0.100000 Head
3660 881	0.100000 Head
3662 923	0.100000 Head
3664 912	0.100000 Head
3666 918	0.100000 Head
3667 920	0.100000 Head
3668 930	0.100000 Head
3673 914	0.100000 Head
3675 902	0.100000 Head
3676 875	0.100000 Head
3677 879	0.100000 Head
3678 921	0.100000 Head
3679 902	0.100000 Head
3683 913	0.100000 Head
3686 922	0.100000 Head
3687 908	0.100000 Head
3688 908	0.100000 Head
3689 895	0.100000 Head
3690 962	0.100000 Head
3692 913	0.100000 Head
3693 913	0.100000 Head
3696 893	0.100000 Head
3697 908	0.100000 Head
3700 913	0.100000 Head
3701 909	0.100000 Head
3705 923	0.100000 Head
3706 907	0.100000 Head
3707 925	0.100000 Head
3708 900	0.100000 Head
3709 902	0.100000 Head
3710 902	0.100000 Head
3714 920	0.100000 Head
3715 912	0.100000 Head
3716 921	0.100000 Head
3717 910	0.100000 Head
3718 910	0.100000 Head
3719 910	0.100000 Head
3720 914	0.100000 Head
3721 911	0.100000 Head
3722 914	0.100000 Head
3723 914	0.100000 Head
3726 946	0.100000 Head
3727 907	0.100000 Head
3729 885	0.100000 Head
3730 915	0.100000 Head
3731 870	0.100000 Head
3734 924	0.100000 Head
3735 918	0.100000 Head
3736 913	0.100000 Head
3737 905	0.100000 Head
3738 892	0.100000 Head
3739 865	0.100000 Head
3740 915	0.100000 Head
3741 909	0.100000 Head
3742 916	0.100000 Head
3743 922	0.100000 Head
3744 905	0.100000 Head
3747 911	0.100000 Head
3748 881	0.100000 Head
3750 904	0.100000 Head
3753 871	0.100000 Head
3755 859	0.100000 Head
3756 861	0.100000 Head
3758 911	0.100000 Head
3764 912	0.100000 Head
3766 910	0.100000 Head
3769 910	0.100000 Head
3770 913	0.100000 Head
3772 905	0.100000 Head
3778 935	0.100000 Head
3779 872	0.100000 Head
3781 860	0.100000 Head
3783 851	0.100000 Head
3788 880	0.100000 Head
3789 865	0.100000 Head
3793 852	0.100000 Head
3794 861	0.100000 Head
3797 877	0.100000 Head
3802 862	0.100000 Head
3806 915	0.100000 Head
3807 913	0.100000 Head
3808 890	0.100000 Head
3811 826	0.100000 Head
3812 919	0.100000 Head
3815 828	0.100000 Head
3816 831	0.100000 Head
3820 892	0.100000 Head
3823 847	0.100000 Head
3826 901	0.100000 Head
3828 912	0.100000 Head
3830 837	0.100000 Head
3831 837	0.100000 Head
3833 837	0.100000 Head
3834 873	0.100000 Head
3835 860	0.100000 Head
3839 885	0.100000 Head
3841 891	0.100000 Head
3842 892	0.100000 Head
3843 813	0.100000 Head
3853 907	0.100000 Head
3854 912	0.100000 Head
3855 908	0.100000 Head
3856 911	0.100000 Head
Sunrise@Lindstrom 6099840	0.708215 Streamflow
Sunrise@Stacy 3188160	1.355000 Streamflow
* model command line
G-PEST.bat
* model input/output
SR_revis.tpl SR_revis.DAT
SR_revis.ins SR_revis.XTR
