pcf
* control data
 restart regularisation
    1367   15738       3    9093      34
27  1  single  point  1  0  0
2.000000e+001  -3.000000e+000  3.000000e-001  1.000000e-002  9 999 lamforgive
5.000000e+000  5.000000e+000  1.000000e-003
1.000000e-001 1
20  5.000000e-004  4  4  1.000000e-002  3
0  0  0  PARSAVEITN
* singular value decomposition
  1
  1367  5.000000e-007
  0
* parameter groups
Kp     relative   1.000000e-001  1.000000e-008  switch  2.000000e+000  parabolic
Kz     relative   1.000000e-001  1.000000e+000  switch  2.000000e+000  parabolic
Cond   relative   1.000000e-002  1.000000e-008  switch  2.000000e+000  parabolic
* parameter data
Rv1  log  factor  4.140536e-002    1.160000e-004  1.000000e+002    Cond   1.0   0.0 1
Rv9  log  factor  3.159574e-002    1.160000e-004  1.000000e+002    Cond   1.0   0.0 1
Rv10  log  factor  4.127219e-001    1.160000e-004  1.000000e+002    Cond   1.0   0.0 1
Rv14  log  factor  1.129117e-001    1.160000e-004  1.000000e+002    Cond   1.0   0.0 1
Rv17  log  factor  1.703094e-003    1.160000e-004  1.000000e+002    Cond   1.0   0.0 1
Rv18  log  factor  2.389038e-003    1.160000e-004  1.000000e+002    Cond   1.0   0.0 1
Rv20  log  factor  6.498727e+001    1.160000e-004  1.000000e+002    Cond   1.0   0.0 1
Rv23  log  factor  7.767912e-002    1.160000e-004  1.000000e+002    Cond   1.0   0.0 1
Rv24  log  factor  1.013776e+000    1.160000e-004  1.000000e+002    Cond   1.0   0.0 1
Rv27  log  factor  3.453129e-001    1.160000e-004  1.000000e+002    Cond   1.0   0.0 1
Rv30  log  factor  2.590587e-002    1.160000e-004  1.000000e+002    Cond   1.0   0.0 1
Rv35  log  factor  3.508773e-001    1.160000e-004  1.000000e+002    Cond   1.0   0.0 1
Rv36  log  factor  4.788859e-002    1.160000e-004  1.000000e+002    Cond   1.0   0.0 1
Rv42  log  factor  1.129002e+000    1.160000e-004  1.000000e+002    Cond   1.0   0.0 1
Rv44  log  factor  2.634919e+001    1.160000e-004  1.000000e+002    Cond   1.0   0.0 1
Rv45  log  factor  3.552944e+001    1.160000e-004  1.000000e+002    Cond   1.0   0.0 1
Rv47  log  factor  4.853918e+001    1.160000e-004  1.000000e+002    Cond   1.0   0.0 1
Rv48  log  factor  4.322227e+000    1.160000e-004  1.000000e+002    Cond   1.0   0.0 1
Rv49  log  factor  2.702994e+000    1.160000e-004  1.000000e+002    Cond   1.0   0.0 1
Rv50  log  factor  7.950148e-003    1.160000e-004  1.000000e+002    Cond   1.0   0.0 1
Rv52  log  factor  6.126333e+001    1.160000e-004  1.000000e+002    Cond   1.0   0.0 1
Rv53  log  factor  4.334745e-001    1.160000e-004  1.000000e+002    Cond   1.0   0.0 1
Rv54  log  factor  8.047135e-002    1.160000e-004  1.000000e+002    Cond   1.0   0.0 1
Rv55  log  factor  4.029160e-002    1.160000e-004  1.000000e+002    Cond   1.0   0.0 1
Rv56  log  factor  2.729298e+001    1.160000e-004  1.000000e+002    Cond   1.0   0.0 1
Rv57  log  factor  9.242984e+001    1.160000e-004  1.000000e+002    Cond   1.0   0.0 1
Rv58  log  factor  2.198272e+001    1.160000e-004  1.000000e+002    Cond   1.0   0.0 1
Rv59  log  factor  3.532067e-002    1.160000e-004  1.000000e+002    Cond   1.0   0.0 1
Rv60  log  factor  2.060986e+001    1.160000e-004  1.000000e+002    Cond   1.0   0.0 1
Rv61  log  factor  1.648569e+000    1.160000e-004  1.000000e+002    Cond   1.0   0.0 1
Rv62  log  factor  2.866214e-001    1.160000e-004  1.000000e+002    Cond   1.0   0.0 1
Rv63  log  factor  7.336071e+000    1.160000e-004  1.000000e+002    Cond   1.0   0.0 1
Rv64  log  factor  8.981091e-001    1.160000e-004  1.000000e+002    Cond   1.0   0.0 1
Rv65  log  factor  2.107033e-002    1.160000e-004  1.000000e+002    Cond   1.0   0.0 1
Rv66  log  factor  7.334409e-002    1.160000e-004  1.000000e+002    Cond   1.0   0.0 1
Rv67  log  factor  1.723874e+000    1.160000e-004  1.000000e+002    Cond   1.0   0.0 1
Rv69  log  factor  2.113341e+000    1.160000e-004  1.000000e+002    Cond   1.0   0.0 1
Rv70  log  factor  4.574679e-002    1.160000e-004  1.000000e+002    Cond   1.0   0.0 1
Rv71  log  factor  3.420153e+001    1.160000e-004  1.000000e+002    Cond   1.0   0.0 1
Rv73  log  factor  3.454232e+001    1.160000e-004  1.000000e+002    Cond   1.0   0.0 1
Rv75  log  factor  8.559554e-001    1.160000e-004  1.000000e+002    Cond   1.0   0.0 1
Rv76  log  factor  3.122244e+000    1.160000e-004  1.000000e+002    Cond   1.0   0.0 1
Rv77  log  factor  2.376176e-001    1.160000e-004  1.000000e+002    Cond   1.0   0.0 1
Rv78  log  factor  1.828208e-001    1.160000e-004  1.000000e+002    Cond   1.0   0.0 1
Rv81  log  factor  2.862668e+000    1.160000e-004  1.000000e+002    Cond   1.0   0.0 1
Rv84  log  factor  4.382763e-002    1.160000e-004  1.000000e+002    Cond   1.0   0.0 1
Rv85  log  factor  1.821747e-002    1.160000e-004  1.000000e+002    Cond   1.0   0.0 1
Rv86  log  factor  9.170466e-001    1.160000e-004  1.000000e+002    Cond   1.0   0.0 1
Rv112  log  factor  3.167764e+000    1.160000e-004  1.000000e+002    Cond   1.0   0.0 1
Rv1000  log  factor  1.539286e-002    1.160000e-004  1.000000e+002    Cond   1.0   0.0 1
Rv1001  log  factor  4.029638e+001    1.160000e-004  1.000000e+002    Cond   1.0   0.0 1
Rv1002  log  factor  1.955445e+000    1.160000e-004  1.000000e+002    Cond   1.0   0.0 1
Rv1003  log  factor  1.928829e+000    1.160000e-004  1.000000e+002    Cond   1.0   0.0 1
Rv1004  log  factor  6.750546e-001    1.160000e-004  1.000000e+002    Cond   1.0   0.0 1
Rv1005  log  factor  1.430721e+001    1.160000e-004  1.000000e+002    Cond   1.0   0.0 1
Rv1006  log  factor  8.309195e-001    1.160000e-004  1.000000e+002    Cond   1.0   0.0 1
Rv1007  log  factor  1.018525e-002    1.160000e-004  1.000000e+002    Cond   1.0   0.0 1
Rv1008  log  factor  9.831189e-001    1.160000e-004  1.000000e+002    Cond   1.0   0.0 1
Rv1009  log  factor  1.273108e+001    1.160000e-004  1.000000e+002    Cond   1.0   0.0 1
Dr1  tied  factor  1.285743e-004    1.160000e-004  1.000000e+002    Cond   1.0   0.0 1
Dr2  log  factor  1.743538e-002    1.160000e-004  1.000000e+002    Cond   1.0   0.0 1
Dr4  log  factor  1.173952e-004    1.160000e-004  1.000000e+002    Cond   1.0   0.0 1
Dr5  log  factor  2.372015e-002    1.160000e-004  1.000000e+002    Cond   1.0   0.0 1
Dr6  log  factor  8.469291e-003    1.160000e-004  1.000000e+002    Cond   1.0   0.0 1
Dr7  log  factor  2.747218e+001    1.160000e-004  1.000000e+002    Cond   1.0   0.0 1
Dr8  log  factor  3.793918e-001    1.160000e-004  1.000000e+002    Cond   1.0   0.0 1
Dr9  tied  factor  6.396733e-002    1.160000e-004  1.000000e+002    Cond   1.0   0.0 1
Dr10  tied  factor  1.950009e-002    1.160000e-004  1.000000e+002    Cond   1.0   0.0 1
Dr11  log  factor  6.665341e-001    1.160000e-004  1.000000e+002    Cond   1.0   0.0 1
Dr12  log  factor  1.461299e+000    1.160000e-004  1.000000e+002    Cond   1.0   0.0 1
Dr13  log  factor  1.732967e-002    1.160000e-004  1.000000e+002    Cond   1.0   0.0 1
Dr14  tied  factor  7.389524e-002    1.160000e-004  1.000000e+002    Cond   1.0   0.0 1
Dr15  log  factor  1.332113e+002    1.160000e-004  1.000000e+002    Cond   1.0   0.0 1
Dr16  log  factor  1.690269e+001    1.160000e-004  1.000000e+002    Cond   1.0   0.0 1
Dr17  tied  factor  2.791111e-002    1.160000e-004  1.000000e+002    Cond   1.0   0.0 1
Dr18  tied  factor  1.767141e-002    1.160000e-004  1.000000e+002    Cond   1.0   0.0 1
Dr19  log  factor  3.850715e-002    1.160000e-004  1.000000e+002    Cond   1.0   0.0 1
Dr21  log  factor  4.403382e-001    1.160000e-004  1.000000e+002    Cond   1.0   0.0 1
Dr22  log  factor  4.657688e+000    1.160000e-004  1.000000e+002    Cond   1.0   0.0 1
Dr23  tied  factor  1.777159e-002    1.160000e-004  1.000000e+002    Cond   1.0   0.0 1
Dr24  tied  factor  3.148277e-001    1.160000e-004  1.000000e+002    Cond   1.0   0.0 1
Dr25  log  factor  4.618973e+001    1.160000e-004  1.000000e+002    Cond   1.0   0.0 1
Dr27  tied  factor  1.547035e+000    1.160000e-004  1.000000e+002    Cond   1.0   0.0 1
Dr28  log  factor  3.770470e+000    1.160000e-004  1.000000e+002    Cond   1.0   0.0 1
Dr29  log  factor  3.952654e+000    1.160000e-004  1.000000e+002    Cond   1.0   0.0 1
Dr30  tied  factor  8.103459e-003    1.160000e-004  1.000000e+002    Cond   1.0   0.0 1
Dr35  tied  factor  5.492830e-001    1.160000e-004  1.000000e+002    Cond   1.0   0.0 1
Dr36  tied  factor  1.679213e-002    1.160000e-004  1.000000e+002    Cond   1.0   0.0 1
Dr37  log  factor  2.545444e+000    1.160000e-004  1.000000e+002    Cond   1.0   0.0 1
Dr38  log  factor  2.651633e-003    1.160000e-004  1.000000e+002    Cond   1.0   0.0 1
Dr39  log  factor  8.786828e-001    1.160000e-004  1.000000e+002    Cond   1.0   0.0 1
Dr40  log  factor  1.390312e-001    1.160000e-004  1.000000e+002    Cond   1.0   0.0 1
Dr41  log  factor  5.513125e+000    1.160000e-004  1.000000e+002    Cond   1.0   0.0 1
Dr42  tied  factor  4.461249e-001    1.160000e-004  1.000000e+002    Cond   1.0   0.0 1
Dr44  tied  factor  1.549777e-001    1.160000e-004  1.000000e+002    Cond   1.0   0.0 1
Dr45  tied  factor  3.213835e-001    1.160000e-004  1.000000e+002    Cond   1.0   0.0 1
Dr46  log  factor  1.326784e+000    1.160000e-004  1.000000e+002    Cond   1.0   0.0 1
Dr47  tied  factor  6.555601e-001    1.160000e-004  1.000000e+002    Cond   1.0   0.0 1
Dr48  tied  factor  1.078420e+001    1.160000e-004  1.000000e+002    Cond   1.0   0.0 1
Dr49  tied  factor  7.335572e+000    1.160000e-004  1.000000e+002    Cond   1.0   0.0 1
Dr50  tied  factor  7.696053e+000    1.160000e-004  1.000000e+002    Cond   1.0   0.0 1
Dr52  tied  factor  1.874684e+000    1.160000e-004  1.000000e+002    Cond   1.0   0.0 1
Dr53  tied  factor  6.570400e-001    1.160000e-004  1.000000e+002    Cond   1.0   0.0 1
Dr54  tied  factor  2.044155e-001    1.160000e-004  1.000000e+002    Cond   1.0   0.0 1
Dr55  tied  factor  4.117422e-001    1.160000e-004  1.000000e+002    Cond   1.0   0.0 1
Dr56  tied  factor  8.577905e-003    1.160000e-004  1.000000e+002    Cond   1.0   0.0 1
Dr57  tied  factor  1.136887e-002    1.160000e-004  1.000000e+002    Cond   1.0   0.0 1
Dr58  tied  factor  1.343704e-001    1.160000e-004  1.000000e+002    Cond   1.0   0.0 1
Dr59  tied  factor  2.156361e-002    1.160000e-004  1.000000e+002    Cond   1.0   0.0 1
Dr60  tied  factor  2.395086e+001    1.160000e-004  1.000000e+002    Cond   1.0   0.0 1
Dr61  tied  factor  3.118007e+000    1.160000e-004  1.000000e+002    Cond   1.0   0.0 1
Dr62  tied  factor  7.700837e-002    1.160000e-004  1.000000e+002    Cond   1.0   0.0 1
Dr64  tied  factor  1.491836e-001    1.160000e-004  1.000000e+002    Cond   1.0   0.0 1
Dr65  tied  factor  1.884388e-002    1.160000e-004  1.000000e+002    Cond   1.0   0.0 1
Dr66  tied  factor  1.131261e-002    1.160000e-004  1.000000e+002    Cond   1.0   0.0 1
Dr67  tied  factor  1.450714e-001    1.160000e-004  1.000000e+002    Cond   1.0   0.0 1
Dr69  tied  factor  7.805208e-001    1.160000e-004  1.000000e+002    Cond   1.0   0.0 1
Dr70  tied  factor  5.129864e-003    1.160000e-004  1.000000e+002    Cond   1.0   0.0 1
Dr71  tied  factor  2.017360e+001    1.160000e-004  1.000000e+002    Cond   1.0   0.0 1
Dr73  tied  factor  2.542110e-001    1.160000e-004  1.000000e+002    Cond   1.0   0.0 1
Dr75  tied  factor  4.649232e+000    1.160000e-004  1.000000e+002    Cond   1.0   0.0 1
Dr76  tied  factor  5.290404e-001    1.160000e-004  1.000000e+002    Cond   1.0   0.0 1
Dr77  tied  factor  8.006677e-001    1.160000e-004  1.000000e+002    Cond   1.0   0.0 1
Dr78  tied  factor  1.582799e+000    1.160000e-004  1.000000e+002    Cond   1.0   0.0 1
Dr79  log  factor  6.730009e+000    1.160000e-004  1.000000e+002    Cond   1.0   0.0 1
Dr80  log  factor  5.113188e-001    1.160000e-004  1.000000e+002    Cond   1.0   0.0 1
Dr81  tied  factor  7.296247e+001    1.160000e-004  1.000000e+002    Cond   1.0   0.0 1
Dr82  log  factor  1.850080e+001    1.160000e-004  1.000000e+002    Cond   1.0   0.0 1
Dr83  log  factor  3.608716e-003    1.160000e-004  1.000000e+002    Cond   1.0   0.0 1
Dr85  tied  factor  2.972538e-002    1.160000e-004  1.000000e+002    Cond   1.0   0.0 1
Dr86  tied  factor  1.041790e+000    1.160000e-004  1.000000e+002    Cond   1.0   0.0 1
Dr88  log  factor  1.288882e+000    1.160000e-004  1.000000e+002    Cond   1.0   0.0 1
Dr93  log  factor  1.515675e+000    1.160000e-004  1.000000e+002    Cond   1.0   0.0 1
Dr94  log  factor  6.290564e+001    1.160000e-004  1.000000e+002    Cond   1.0   0.0 1
Dr95  log  factor  2.158896e-001    1.160000e-004  1.000000e+002    Cond   1.0   0.0 1
Dr106  log  factor  8.712226e-003    1.160000e-004  1.000000e+002    Cond   1.0   0.0 1
Dr112  tied  factor  2.917199e-001    1.160000e-004  1.000000e+002    Cond   1.0   0.0 1
Dr122  log  factor  5.065669e+000    1.160000e-004  1.000000e+002    Cond   1.0   0.0 1
Dr1000  tied  factor  1.869716e-001    1.160000e-004  1.000000e+002    Cond   1.0   0.0 1
Dr1001  tied  factor  4.336618e-001    1.160000e-004  1.000000e+002    Cond   1.0   0.0 1
Dr1002  tied  factor  2.059737e-002    1.160000e-004  1.000000e+002    Cond   1.0   0.0 1
Dr1003  tied  factor  6.709364e+000    1.160000e-004  1.000000e+002    Cond   1.0   0.0 1
Dr1004  tied  factor  3.441864e-002    1.160000e-004  1.000000e+002    Cond   1.0   0.0 1
Dr1005  tied  factor  1.949411e-001    1.160000e-004  1.000000e+002    Cond   1.0   0.0 1
Dr1006  tied  factor  1.204406e-002    1.160000e-004  1.000000e+002    Cond   1.0   0.0 1
Dr1007  tied  factor  1.896563e-001    1.160000e-004  1.000000e+002    Cond   1.0   0.0 1
Dr1008  tied  factor  1.028905e-002    1.160000e-004  1.000000e+002    Cond   1.0   0.0 1
Dr1009  tied  factor  1.882717e-003    1.160000e-004  1.000000e+002    Cond   1.0   0.0 1
St1  log  factor  3.629000e-007    1.000000e-009  1.170000e-003    Cond   1.0   0.0 1
St2  log  factor  1.091100e-006    1.000000e-009  1.170000e-003    Cond   1.0   0.0 1
St3  log  factor  5.240900e-007    1.000000e-009  1.170000e-003    Cond   1.0   0.0 1
St4  log  factor  2.351300e-005    1.000000e-009  1.170000e-003    Cond   1.0   0.0 1
St5  log  factor  2.225300e-005    1.000000e-009  1.170000e-003    Cond   1.0   0.0 1
St6  log  factor  1.301300e-005    1.000000e-009  1.170000e-003    Cond   1.0   0.0 1
St7  log  factor  8.719800e-006    1.000000e-009  1.170000e-003    Cond   1.0   0.0 1
St8  log  factor  3.323400e-005    1.000000e-009  1.170000e-003    Cond   1.0   0.0 1
St9  log  factor  8.281300e-006    1.000000e-009  1.170000e-003    Cond   1.0   0.0 1
St10  log  factor  4.137700e-006    1.000000e-009  1.170000e-003    Cond   1.0   0.0 1
St11  log  factor  9.617500e-006    1.000000e-009  1.170000e-003    Cond   1.0   0.0 1
St12  log  factor  5.544400e-006    1.000000e-009  1.170000e-003    Cond   1.0   0.0 1
St13  log  factor  5.078200e-007    1.000000e-009  1.170000e-003    Cond   1.0   0.0 1
St14  log  factor  1.737300e-007    1.000000e-009  1.170000e-003    Cond   1.0   0.0 1
St15  log  factor  2.076700e-007    1.000000e-009  1.170000e-003    Cond   1.0   0.0 1
St16  log  factor  4.464200e-006    1.000000e-009  1.170000e-003    Cond   1.0   0.0 1
St17  log  factor  2.624400e-006    1.000000e-009  1.170000e-003    Cond   1.0   0.0 1
St18  log  factor  5.710000e-005    1.000000e-009  1.170000e-003    Cond   1.0   0.0 1
St19  log  factor  2.499900e-005    1.000000e-009  1.170000e-003    Cond   1.0   0.0 1
St20  log  factor  1.198100e-006    1.000000e-009  1.170000e-003    Cond   1.0   0.0 1
St21  log  factor  4.155200e-005    1.000000e-009  1.170000e-003    Cond   1.0   0.0 1
St22  log  factor  5.585700e-005    1.000000e-009  1.170000e-003    Cond   1.0   0.0 1
St23  log  factor  3.714900e-005    1.000000e-009  1.170000e-003    Cond   1.0   0.0 1
St24  log  factor  1.796400e-006    1.000000e-009  1.170000e-003    Cond   1.0   0.0 1
St25  log  factor  7.399500e-005    1.000000e-009  1.170000e-003    Cond   1.0   0.0 1
St26  log  factor  4.227400e-005    1.000000e-009  1.170000e-003    Cond   1.0   0.0 1
St27  log  factor  9.917400e-005    1.000000e-009  1.170000e-003    Cond   1.0   0.0 1
St28  log  factor  3.747500e-006    1.000000e-009  1.170000e-003    Cond   1.0   0.0 1
St29  log  factor  8.716500e-006    1.000000e-009  1.170000e-003    Cond   1.0   0.0 1
St30  log  factor  2.214100e-006    1.000000e-009  1.170000e-003    Cond   1.0   0.0 1
St32  log  factor  6.049300e-006    1.000000e-009  1.170000e-003    Cond   1.0   0.0 1
St33  log  factor  1.265500e-006    1.000000e-009  1.170000e-003    Cond   1.0   0.0 1
St34  log  factor  5.738500e-005    1.000000e-009  1.170000e-003    Cond   1.0   0.0 1
St35  log  factor  1.875400e-006    1.000000e-009  1.170000e-003    Cond   1.0   0.0 1
St36  log  factor  1.057800e-005    1.000000e-009  1.170000e-003    Cond   1.0   0.0 1
St37  log  factor  7.817600e-006    1.000000e-009  1.170000e-003    Cond   1.0   0.0 1
St38  log  factor  1.113000e-006    1.000000e-009  1.170000e-003    Cond   1.0   0.0 1
St39  log  factor  3.341300e-006    1.000000e-009  1.170000e-003    Cond   1.0   0.0 1
St40  log  factor  4.661100e-006    1.000000e-009  1.170000e-003    Cond   1.0   0.0 1
St41  log  factor  1.251300e-006    1.000000e-009  1.170000e-003    Cond   1.0   0.0 1
St42  log  factor  3.264500e-006    1.000000e-009  1.170000e-003    Cond   1.0   0.0 1
St43  log  factor  2.101100e-006    1.000000e-009  1.170000e-003    Cond   1.0   0.0 1
St44  log  factor  2.821600e-006    1.000000e-009  1.170000e-003    Cond   1.0   0.0 1
St45  log  factor  1.403900e-005    1.000000e-009  1.170000e-003    Cond   1.0   0.0 1
St46  log  factor  2.072700e-005    1.000000e-009  1.170000e-003    Cond   1.0   0.0 1
St47  log  factor  2.506900e-005    1.000000e-009  1.170000e-003    Cond   1.0   0.0 1
St48  log  factor  3.921700e-006    1.000000e-009  1.170000e-003    Cond   1.0   0.0 1
St49  log  factor  1.389300e-006    1.000000e-009  1.170000e-003    Cond   1.0   0.0 1
St50  log  factor  9.065300e-006    1.000000e-009  1.170000e-003    Cond   1.0   0.0 1
St51  log  factor  3.572400e-006    1.000000e-009  1.170000e-003    Cond   1.0   0.0 1
St52  log  factor  8.190500e-005    1.000000e-009  1.170000e-003    Cond   1.0   0.0 1
St53  log  factor  9.732900e-005    1.000000e-009  1.170000e-003    Cond   1.0   0.0 1
St57  log  factor  5.890300e-005    1.000000e-009  1.170000e-003    Cond   1.0   0.0 1
St58  log  factor  3.808200e-005    1.000000e-009  1.170000e-003    Cond   1.0   0.0 1
St59  log  factor  1.750200e-005    1.000000e-009  1.170000e-003    Cond   1.0   0.0 1
St60  log  factor  1.394500e-006    1.000000e-009  1.170000e-003    Cond   1.0   0.0 1
St61  log  factor  1.608300e-006    1.000000e-009  1.170000e-003    Cond   1.0   0.0 1
St62  log  factor  9.296100e-006    1.000000e-009  1.170000e-003    Cond   1.0   0.0 1
St65  log  factor  3.279700e-007    1.000000e-009  1.170000e-003    Cond   1.0   0.0 1
St66  log  factor  3.023400e-005    1.000000e-009  1.170000e-003    Cond   1.0   0.0 1
St68  log  factor  7.975800e-006    1.000000e-009  1.170000e-003    Cond   1.0   0.0 1
St69  log  factor  2.445400e-005    1.000000e-009  1.170000e-003    Cond   1.0   0.0 1
St70  log  factor  4.712300e-007    1.000000e-009  1.170000e-003    Cond   1.0   0.0 1
St71  log  factor  1.866500e-006    1.000000e-009  1.170000e-003    Cond   1.0   0.0 1
St72  log  factor  1.212000e-006    1.000000e-009  1.170000e-003    Cond   1.0   0.0 1
St73  log  factor  8.434400e-006    1.000000e-009  1.170000e-003    Cond   1.0   0.0 1
St74  log  factor  2.759700e-006    1.000000e-009  1.170000e-003    Cond   1.0   0.0 1
St75  log  factor  2.008700e-006    1.000000e-009  1.170000e-003    Cond   1.0   0.0 1
St76  log  factor  2.114000e-006    1.000000e-009  1.170000e-003    Cond   1.0   0.0 1
St77  log  factor  2.460100e-006    1.000000e-009  1.170000e-003    Cond   1.0   0.0 1
St78  log  factor  3.178700e-005    1.000000e-009  1.170000e-003    Cond   1.0   0.0 1
St79  log  factor  3.264200e-006    1.000000e-009  1.170000e-003    Cond   1.0   0.0 1
St80  log  factor  8.880900e-006    1.000000e-009  1.170000e-003    Cond   1.0   0.0 1
St81  log  factor  1.486500e-005    1.000000e-009  1.170000e-003    Cond   1.0   0.0 1
St82  log  factor  2.671200e-006    1.000000e-009  1.170000e-003    Cond   1.0   0.0 1
St83  log  factor  3.366900e-005    1.000000e-009  1.170000e-003    Cond   1.0   0.0 1
St84  log  factor  3.434600e-006    1.000000e-009  1.170000e-003    Cond   1.0   0.0 1
St85  log  factor  1.767600e-006    1.000000e-009  1.170000e-003    Cond   1.0   0.0 1
St86  log  factor  1.548000e-006    1.000000e-009  1.170000e-003    Cond   1.0   0.0 1
St87  log  factor  2.459300e-005    1.000000e-009  1.170000e-003    Cond   1.0   0.0 1
St88  log  factor  4.695600e-005    1.000000e-009  1.170000e-003    Cond   1.0   0.0 1
St93  log  factor  2.763800e-007    1.000000e-009  1.170000e-003    Cond   1.0   0.0 1
St94  log  factor  1.373000e-005    1.000000e-009  1.170000e-003    Cond   1.0   0.0 1
St95  log  factor  1.044200e-006    1.000000e-009  1.170000e-003    Cond   1.0   0.0 1
St97  log  factor  1.205300e-005    1.000000e-009  1.170000e-003    Cond   1.0   0.0 1
St112  log  factor  1.585400e-006    1.000000e-009  1.170000e-003    Cond   1.0   0.0 1
St113  log  factor  5.865000e-006    1.000000e-009  1.170000e-003    Cond   1.0   0.0 1
St122  log  factor  4.717000e-006    1.000000e-009  1.170000e-003    Cond   1.0   0.0 1
St1000  log  factor  1.799800e-006    1.000000e-009  1.170000e-003    Cond   1.0   0.0 1
St1001  log  factor  6.393500e-006    1.000000e-009  1.170000e-003    Cond   1.0   0.0 1
St1003  log  factor  1.840400e-005    1.000000e-009  1.170000e-003    Cond   1.0   0.0 1
St1004  log  factor  1.556700e-005    1.000000e-009  1.170000e-003    Cond   1.0   0.0 1
Kp3Kx1  log  factor  6.561278e-006  1.000000e-009  1.170000e-003  Kp  1.0  0.0  1
Kp3Kx2  log  factor  6.874359e-007  1.000000e-009  1.170000e-003  Kp  1.0  0.0  1
Kp3Kx3  log  factor  6.445146e-006  1.000000e-009  1.170000e-003  Kp  1.0  0.0  1
Kp3Kx4  log  factor  3.380635e-006  1.000000e-009  1.170000e-003  Kp  1.0  0.0  1
Kp3Kx5  log  factor  1.066284e-006  1.000000e-009  1.170000e-003  Kp  1.0  0.0  1
Kp3Kx6  log  factor  1.530501e-006  1.000000e-009  1.170000e-003  Kp  1.0  0.0  1
Kp3Kx7  log  factor  4.107089e-005  1.000000e-009  1.170000e-003  Kp  1.0  0.0  1
Kp3Kx8  log  factor  1.061804e-005  1.000000e-009  1.170000e-003  Kp  1.0  0.0  1
Kp3Kx10  log  factor  1.100552e-005  1.000000e-009  1.170000e-003  Kp  1.0  0.0  1
Kp3Kx11  log  factor  8.103078e-006  1.000000e-009  1.170000e-003  Kp  1.0  0.0  1
Kp3Kx12  log  factor  2.587508e-005  1.000000e-009  1.170000e-003  Kp  1.0  0.0  1
Kp3Kx13  log  factor  3.344562e-004  1.000000e-009  1.170000e-003  Kp  1.0  0.0  1
Kp3Kx14  log  factor  7.318893e-006  1.000000e-009  1.170000e-003  Kp  1.0  0.0  1
Kp3Kx15  log  factor  3.490638e-004  1.000000e-009  1.170000e-003  Kp  1.0  0.0  1
Kp3Kx16  log  factor  4.183504e-004  1.000000e-009  1.170000e-003  Kp  1.0  0.0  1
Kp3Kx17  log  factor  4.696835e-005  1.000000e-009  1.170000e-003  Kp  1.0  0.0  1
Kp3Kx18  log  factor  2.005805e-006  1.000000e-009  1.170000e-003  Kp  1.0  0.0  1
Kp3Kx19  log  factor  8.001532e-008  1.000000e-009  1.170000e-003  Kp  1.0  0.0  1
Kp3Kx20  log  factor  1.609880e-006  1.000000e-009  1.170000e-003  Kp  1.0  0.0  1
Kp3Kx21  log  factor  9.699656e-006  1.000000e-009  1.170000e-003  Kp  1.0  0.0  1
Kp3Kx22  log  factor  9.245605e-006  1.000000e-009  1.170000e-003  Kp  1.0  0.0  1
Kp3Kx23  log  factor  6.756814e-006  1.000000e-009  1.170000e-003  Kp  1.0  0.0  1
Kp3Kx24  log  factor  1.350692e-006  1.000000e-009  1.170000e-003  Kp  1.0  0.0  1
Kp3Kx25  log  factor  1.125675e-006  1.000000e-009  1.170000e-003  Kp  1.0  0.0  1
Kp3Kx26  log  factor  1.373534e-005  1.000000e-009  1.170000e-003  Kp  1.0  0.0  1
Kp3Kx27  log  factor  2.972787e-006  1.000000e-009  1.170000e-003  Kp  1.0  0.0  1
Kp3Kx28  log  factor  2.895906e-006  1.000000e-009  1.170000e-003  Kp  1.0  0.0  1
Kp3Kx29  log  factor  5.048519e-007  1.000000e-009  1.170000e-003  Kp  1.0  0.0  1
Kp3Kx30  log  factor  1.346271e-005  1.000000e-009  1.170000e-003  Kp  1.0  0.0  1
Kp3Kx31  log  factor  9.147684e-007  1.000000e-009  1.170000e-003  Kp  1.0  0.0  1
Kp3Kx32  log  factor  3.015107e-006  1.000000e-009  1.170000e-003  Kp  1.0  0.0  1
Kp3Kx33  log  factor  5.246009e-007  1.000000e-009  1.170000e-003  Kp  1.0  0.0  1
Kp3Kx34  log  factor  5.180282e-007  1.000000e-009  1.170000e-003  Kp  1.0  0.0  1
Kp3Kx35  log  factor  4.142608e-006  1.000000e-009  1.170000e-003  Kp  1.0  0.0  1
Kp3Kx36  log  factor  1.453778e-007  1.000000e-009  1.170000e-003  Kp  1.0  0.0  1
Kp3Kx37  log  factor  1.133709e-006  1.000000e-009  1.170000e-003  Kp  1.0  0.0  1
Kp3Kx38  log  factor  8.879951e-007  1.000000e-009  1.170000e-003  Kp  1.0  0.0  1
Kp3Kx39  log  factor  1.809733e-007  1.000000e-009  1.170000e-003  Kp  1.0  0.0  1
Kp3Kx40  log  factor  2.118601e-007  1.000000e-009  1.170000e-003  Kp  1.0  0.0  1
Kp3Kx41  log  factor  2.790560e-007  1.000000e-009  1.170000e-003  Kp  1.0  0.0  1
Kp3Kx42  log  factor  2.271708e-007  1.000000e-009  1.170000e-003  Kp  1.0  0.0  1
Kp3Kx43  log  factor  3.345505e-007  1.000000e-009  1.170000e-003  Kp  1.0  0.0  1
Kp3Kx44  log  factor  1.417611e-007  1.000000e-009  1.170000e-003  Kp  1.0  0.0  1
Kp3Kx45  log  factor  5.426547e-007  1.000000e-009  1.170000e-003  Kp  1.0  0.0  1
Kp3Kx46  log  factor  3.462299e-006  1.000000e-009  1.170000e-003  Kp  1.0  0.0  1
Kp3Kx47  log  factor  3.011441e-007  1.000000e-009  1.170000e-003  Kp  1.0  0.0  1
Kp3Kx48  log  factor  1.377055e-007  1.000000e-009  1.170000e-003  Kp  1.0  0.0  1
Kp3Kx49  log  factor  2.506831e-007  1.000000e-009  1.170000e-003  Kp  1.0  0.0  1
Kp3Kx50  log  factor  9.976336e-008  1.000000e-009  1.170000e-003  Kp  1.0  0.0  1
Kp3Kx51  log  factor  5.379010e-007  1.000000e-009  1.170000e-003  Kp  1.0  0.0  1
Kp3Kx52  log  factor  2.764724e-007  1.000000e-009  1.170000e-003  Kp  1.0  0.0  1
Kp3Kx53  log  factor  7.409779e-007  1.000000e-009  1.170000e-003  Kp  1.0  0.0  1
Kp3Kx54  log  factor  1.561508e-007  1.000000e-009  1.170000e-003  Kp  1.0  0.0  1
Kp3Kx55  log  factor  7.159177e-007  1.000000e-009  1.170000e-003  Kp  1.0  0.0  1
Kp3Kx56  log  factor  4.555159e-008  1.000000e-009  1.170000e-003  Kp  1.0  0.0  1
Kp3Kx57  log  factor  3.246197e-006  1.000000e-009  1.170000e-003  Kp  1.0  0.0  1
Kp3Kx58  log  factor  1.287107e-006  1.000000e-009  1.170000e-003  Kp  1.0  0.0  1
Kp3Kx59  log  factor  6.387714e-007  1.000000e-009  1.170000e-003  Kp  1.0  0.0  1
Kp3Kx60  log  factor  6.691925e-007  1.000000e-009  1.170000e-003  Kp  1.0  0.0  1
Kp3Kx61  log  factor  1.151631e-006  1.000000e-009  1.170000e-003  Kp  1.0  0.0  1
Kp3Kx62  log  factor  8.611403e-007  1.000000e-009  1.170000e-003  Kp  1.0  0.0  1
Kp3Kx63  log  factor  6.804453e-007  1.000000e-009  1.170000e-003  Kp  1.0  0.0  1
Kp3Kx64  log  factor  3.566798e-006  1.000000e-009  1.170000e-003  Kp  1.0  0.0  1
Kp3Kx65  log  factor  1.248225e-007  1.000000e-009  1.170000e-003  Kp  1.0  0.0  1
Kp3Kx66  log  factor  2.721097e-006  1.000000e-009  1.170000e-003  Kp  1.0  0.0  1
Kp3Kx67  log  factor  9.405236e-008  1.000000e-009  1.170000e-003  Kp  1.0  0.0  1
Kp3Kx68  log  factor  1.140242e-006  1.000000e-009  1.170000e-003  Kp  1.0  0.0  1
Kp3Kx69  log  factor  1.652337e-006  1.000000e-009  1.170000e-003  Kp  1.0  0.0  1
Kp3Kx70  log  factor  1.272436e-005  1.000000e-009  1.170000e-003  Kp  1.0  0.0  1
Kp3Kx71  log  factor  1.804653e-005  1.000000e-009  1.170000e-003  Kp  1.0  0.0  1
Kp3Kx72  log  factor  7.081195e-006  1.000000e-009  1.170000e-003  Kp  1.0  0.0  1
Kp3Kx73  log  factor  4.749397e-006  1.000000e-009  1.170000e-003  Kp  1.0  0.0  1
Kp3Kx74  log  factor  3.172332e-006  1.000000e-009  1.170000e-003  Kp  1.0  0.0  1
Kp3Kx75  log  factor  1.186702e-006  1.000000e-009  1.170000e-003  Kp  1.0  0.0  1
Kp3Kx76  log  factor  5.457076e-007  1.000000e-009  1.170000e-003  Kp  1.0  0.0  1
Kp3Kx77  log  factor  1.169915e-005  1.000000e-009  1.170000e-003  Kp  1.0  0.0  1
Kp4Kx1  log  factor  3.416241e-007  1.000000e-009  1.170000e-003  Kp  1.0  0.0  1
Kp4Kx2  log  factor  2.984495e-007  1.000000e-009  1.170000e-003  Kp  1.0  0.0  1
Kp4Kx3  log  factor  5.575985e-007  1.000000e-009  1.170000e-003  Kp  1.0  0.0  1
Kp4Kx4  log  factor  1.506109e-006  1.000000e-009  1.170000e-003  Kp  1.0  0.0  1
Kp4Kx5  log  factor  1.834969e-007  1.000000e-009  1.170000e-003  Kp  1.0  0.0  1
Kp4Kx6  log  factor  5.681469e-007  1.000000e-009  1.170000e-003  Kp  1.0  0.0  1
Kp4Kx7  log  factor  1.316915e-005  1.000000e-009  1.170000e-003  Kp  1.0  0.0  1
Kp4Kx8  log  factor  2.065402e-007  1.000000e-009  1.170000e-003  Kp  1.0  0.0  1
Kp4Kx9  log  factor  6.220259e-007  1.000000e-009  1.170000e-003  Kp  1.0  0.0  1
Kp4Kx10  log  factor  3.545529e-005  1.000000e-009  1.170000e-003  Kp  1.0  0.0  1
Kp4Kx11  log  factor  2.939532e-007  1.000000e-009  1.170000e-003  Kp  1.0  0.0  1
Kp4Kx12  log  factor  1.564284e-007  1.000000e-009  1.170000e-003  Kp  1.0  0.0  1
Kp4Kx13  log  factor  2.929585e-007  1.000000e-009  1.170000e-003  Kp  1.0  0.0  1
Kp4Kx14  log  factor  1.828364e-005  1.000000e-009  1.170000e-003  Kp  1.0  0.0  1
Kp4Kx15  log  factor  6.945656e-006  1.000000e-009  1.170000e-003  Kp  1.0  0.0  1
Kp4Kx16  log  factor  3.453748e-006  1.000000e-009  1.170000e-003  Kp  1.0  0.0  1
Kp4Kx17  log  factor  7.690718e-006  1.000000e-009  1.170000e-003  Kp  1.0  0.0  1
Kp4Kx18  log  factor  1.210391e-006  1.000000e-009  1.170000e-003  Kp  1.0  0.0  1
Kp4Kx19  log  factor  1.110972e-006  1.000000e-009  1.170000e-003  Kp  1.0  0.0  1
Kp4Kx20  log  factor  2.532634e-006  1.000000e-009  1.170000e-003  Kp  1.0  0.0  1