pcf
* control data
restart estimation
240 15492 1 0 65
1 1 single point 1 0 0
25 -3 0.3 0.03 10 999 LAMFORGIVE
5.0 5.0 1.0e-3
0.1 noaui
30 .005 4 4 .005 4
1 1 1  nojcosaveitn noreisaveitn
* singular value decomposition
1
240 5e-7
0
* parameter groups
4_precip     relative     1.0000E-02   0.000      switch      2.000      parabolic
* parameter data
rainad_001   log    factor        1.0000       0.80000        5.0000      4_precip       1.000       0.000        1
rainad_002   log    factor        1.0000       0.80000        5.0000      4_precip       1.000       0.000        1
rainad_003   log    factor        1.0000       0.80000        5.0000      4_precip       1.000       0.000        1
rainad_004   log    factor        1.0000       0.80000        5.0000      4_precip       1.000       0.000        1
rainad_005   log    factor        1.0000       0.80000        5.0000      4_precip       1.000       0.000        1
rainad_006   log    factor        1.0000       0.80000        5.0000      4_precip       1.000       0.000        1
rainad_007   log    factor        1.0000       0.80000        5.0000      4_precip       1.000       0.000        1
rainad_008   log    factor        1.0000       0.80000        5.0000      4_precip       1.000       0.000        1
rainad_009   log    factor        1.0000       0.80000        5.0000      4_precip       1.000       0.000        1
rainad_010   log    factor        1.0000       0.80000        5.0000      4_precip       1.000       0.000        1
rainad_011   log    factor        1.0000       0.80000        5.0000      4_precip       1.000       0.000        1
rainad_012   log    factor        1.0000       0.80000        5.0000      4_precip       1.000       0.000        1
rainad_013   log    factor        1.0000       0.80000        5.0000      4_precip       1.000       0.000        1
rainad_014   log    factor        1.0000       0.80000        5.0000      4_precip       1.000       0.000        1
rainad_015   log    factor        1.0000       0.80000        5.0000      4_precip       1.000       0.000        1
rainad_016   log    factor        1.0000       0.80000        5.0000      4_precip       1.000       0.000        1
rainad_017   log    factor        1.0000       0.80000        5.0000      4_precip       1.000       0.000        1
rainad_018   log    factor        1.0000       0.80000        5.0000      4_precip       1.000       0.000        1
rainad_019   log    factor        1.0000       0.80000        5.0000      4_precip       1.000       0.000        1
rainad_020   log    factor        1.0000       0.80000        5.0000      4_precip       1.000       0.000        1
rainad_021   log    factor        1.0000       0.80000        5.0000      4_precip       1.000       0.000        1
rainad_022   log    factor        1.0000       0.80000        5.0000      4_precip       1.000       0.000        1
rainad_023   log    factor        1.0000       0.80000        5.0000      4_precip       1.000       0.000        1
rainad_024   log    factor        1.0000       0.80000        5.0000      4_precip       1.000       0.000        1
rainad_025   log    factor        1.0000       0.80000        5.0000      4_precip       1.000       0.000        1
rainad_026   log    factor        1.0000       0.80000        5.0000      4_precip       1.000       0.000        1
rainad_027   log    factor        1.0000       0.80000        5.0000      4_precip       1.000       0.000        1
rainad_028   log    factor        1.0000       0.80000        5.0000      4_precip       1.000       0.000        1
rainad_029   log    factor        1.0000       0.80000        5.0000      4_precip       1.000       0.000        1
rainad_030   log    factor        1.0000       0.80000        5.0000      4_precip       1.000       0.000        1
rainad_031   log    factor        1.0000       0.80000        5.0000      4_precip       1.000       0.000        1
rainad_032   log    factor        1.0000       0.80000        5.0000      4_precip       1.000       0.000        1
rainad_033   log    factor        1.0000       0.80000        5.0000      4_precip       1.000       0.000        1
rainad_034   log    factor        1.0000       0.80000        5.0000      4_precip       1.000       0.000        1
rainad_035   log    factor        1.0000       0.80000        5.0000      4_precip       1.000       0.000        1
rainad_036   log    factor        1.0000       0.80000        5.0000      4_precip       1.000       0.000        1
rainad_037   log    factor        1.0000       0.80000        5.0000      4_precip       1.000       0.000        1
rainad_038   log    factor        1.0000       0.80000        5.0000      4_precip       1.000       0.000        1
rainad_039   log    factor        1.0000       0.80000        5.0000      4_precip       1.000       0.000        1
rainad_040   log    factor        1.0000       0.80000        5.0000      4_precip       1.000       0.000        1
rainad_041   log    factor        1.0000       0.80000        5.0000      4_precip       1.000       0.000        1
rainad_042   log    factor        1.0000       0.80000        5.0000      4_precip       1.000       0.000        1
rainad_043   log    factor        1.0000       0.80000        5.0000      4_precip       1.000       0.000        1
rainad_044   log    factor        1.0000       0.80000        5.0000      4_precip       1.000       0.000        1
rainad_045   log    factor        1.0000       0.80000        5.0000      4_precip       1.000       0.000        1
rainad_046   log    factor        1.0000       0.80000        5.0000      4_precip       1.000       0.000        1
rainad_047   log    factor        1.0000       0.80000        5.0000      4_precip       1.000       0.000        1
rainad_048   log    factor        1.0000       0.80000        5.0000      4_precip       1.000       0.000        1
rainad_049   log    factor        1.0000       0.80000        5.0000      4_precip       1.000       0.000        1
rainad_050   log    factor        1.0000       0.80000        5.0000      4_precip       1.000       0.000        1
rainad_051   log    factor        1.0000       0.80000        5.0000      4_precip       1.000       0.000        1
rainad_052   log    factor        1.0000       0.80000        5.0000      4_precip       1.000       0.000        1
rainad_053   log    factor        1.0000       0.80000        5.0000      4_precip       1.000       0.000        1
rainad_054   log    factor        1.0000       0.80000        5.0000      4_precip       1.000       0.000        1
rainad_055   log    factor        1.0000       0.80000        5.0000      4_precip       1.000       0.000        1
rainad_056   log    factor        1.0000       0.80000        5.0000      4_precip       1.000       0.000        1
rainad_057   log    factor        1.0000       0.80000        5.0000      4_precip       1.000       0.000        1
rainad_058   log    factor        1.0000       0.80000        5.0000      4_precip       1.000       0.000        1
rainad_059   log    factor        1.0000       0.80000        5.0000      4_precip       1.000       0.000        1
rainad_060   log    factor        1.0000       0.80000        5.0000      4_precip       1.000       0.000        1
rainad_061   log    factor        1.0000       0.80000        5.0000      4_precip       1.000       0.000        1
rainad_062   log    factor        1.0000       0.80000        5.0000      4_precip       1.000       0.000        1
rainad_063   log    factor        1.0000       0.80000        5.0000      4_precip       1.000       0.000        1
rainad_064   log    factor        1.0000       0.80000        5.0000      4_precip       1.000       0.000        1
rainad_065   log    factor        1.0000       0.80000        5.0000      4_precip       1.000       0.000        1
rainad_066   log    factor        1.0000       0.80000        5.0000      4_precip       1.000       0.000        1
rainad_067   log    factor        1.0000       0.80000        5.0000      4_precip       1.000       0.000        1
rainad_068   log    factor        1.0000       0.80000        5.0000      4_precip       1.000       0.000        1
rainad_069   log    factor        1.0000       0.80000        5.0000      4_precip       1.000       0.000        1
rainad_070   log    factor        1.0000       0.80000        5.0000      4_precip       1.000       0.000        1
rainad_071   log    factor        1.0000       0.80000        5.0000      4_precip       1.000       0.000        1
rainad_072   log    factor        1.0000       0.80000        5.0000      4_precip       1.000       0.000        1
rainad_073   log    factor        1.0000       0.80000        5.0000      4_precip       1.000       0.000        1
rainad_074   log    factor        1.0000       0.80000        5.0000      4_precip       1.000       0.000        1
rainad_075   log    factor        1.0000       0.80000        5.0000      4_precip       1.000       0.000        1
rainad_076   log    factor        1.0000       0.80000        5.0000      4_precip       1.000       0.000        1
rainad_077   log    factor        1.0000       0.80000        5.0000      4_precip       1.000       0.000        1
rainad_078   log    factor        1.0000       0.80000        5.0000      4_precip       1.000       0.000        1
rainad_079   log    factor        1.0000       0.80000        5.0000      4_precip       1.000       0.000        1
rainad_080   log    factor        1.0000       0.80000        5.0000      4_precip       1.000       0.000        1
rainad_081   log    factor        1.0000       0.80000        5.0000      4_precip       1.000       0.000        1
rainad_082   log    factor        1.0000       0.80000        5.0000      4_precip       1.000       0.000        1
rainad_083   log    factor        1.0000       0.80000        5.0000      4_precip       1.000       0.000        1
rainad_084   log    factor        1.0000       0.80000        5.0000      4_precip       1.000       0.000        1
rainad_085   log    factor        1.0000       0.80000        5.0000      4_precip       1.000       0.000        1
rainad_086   log    factor        1.0000       0.80000        5.0000      4_precip       1.000       0.000        1
rainad_087   log    factor        1.0000       0.80000        5.0000      4_precip       1.000       0.000        1
rainad_088   log    factor        1.0000       0.80000        5.0000      4_precip       1.000       0.000        1
rainad_089   log    factor        1.0000       0.80000        5.0000      4_precip       1.000       0.000        1
rainad_090   log    factor        1.0000       0.80000        5.0000      4_precip       1.000       0.000        1
rainad_091   log    factor        1.0000       0.80000        5.0000      4_precip       1.000       0.000        1
rainad_092   log    factor        1.0000       0.80000        5.0000      4_precip       1.000       0.000        1
rainad_093   log    factor        1.0000       0.80000        5.0000      4_precip       1.000       0.000        1
rainad_094   log    factor        1.0000       0.80000        5.0000      4_precip       1.000       0.000        1
rainad_095   log    factor        1.0000       0.80000        5.0000      4_precip       1.000       0.000        1
rainad_096   log    factor        1.0000       0.80000        5.0000      4_precip       1.000       0.000        1
rainad_097   log    factor        1.0000       0.80000        5.0000      4_precip       1.000       0.000        1
rainad_098   log    factor        1.0000       0.80000        5.0000      4_precip       1.000       0.000        1
rainad_099   log    factor        1.0000       0.80000        5.0000      4_precip       1.000       0.000        1
rainad_100   log    factor        1.0000       0.80000        5.0000      4_precip       1.000       0.000        1
rainad_101   log    factor        1.0000       0.80000        5.0000      4_precip       1.000       0.000        1
rainad_102   log    factor        1.0000       0.80000        5.0000      4_precip       1.000       0.000        1
rainad_103   log    factor        1.0000       0.80000        5.0000      4_precip       1.000       0.000        1
rainad_104   log    factor        1.0000       0.80000        5.0000      4_precip       1.000       0.000        1
rainad_105   log    factor        1.0000       0.80000        5.0000      4_precip       1.000       0.000        1
rainad_106   log    factor        1.0000       0.80000        5.0000      4_precip       1.000       0.000        1
rainad_107   log    factor        1.0000       0.80000        5.0000      4_precip       1.000       0.000        1
rainad_108   log    factor        1.0000       0.80000        5.0000      4_precip       1.000       0.000        1
rainad_109   log    factor        1.0000       0.80000        5.0000      4_precip       1.000       0.000        1
rainad_110   log    factor        1.0000       0.80000        5.0000      4_precip       1.000       0.000        1
rainad_111   log    factor        1.0000       0.80000        5.0000      4_precip       1.000       0.000        1
rainad_112   log    factor        1.0000       0.80000        5.0000      4_precip       1.000       0.000        1
rainad_113   log    factor        1.0000       0.80000        5.0000      4_precip       1.000       0.000        1
rainad_114   log    factor        1.0000       0.80000        5.0000      4_precip       1.000       0.000        1
rainad_115   log    factor        1.0000       0.80000        5.0000      4_precip       1.000       0.000        1
rainad_116   log    factor        1.0000       0.80000        5.0000      4_precip       1.000       0.000        1
rainad_117   log    factor        1.0000       0.80000        5.0000      4_precip       1.000       0.000        1
rainad_118   log    factor        1.0000       0.80000        5.0000      4_precip       1.000       0.000        1
rainad_119   log    factor        1.0000       0.80000        5.0000      4_precip       1.000       0.000        1
rainad_120   log    factor        1.0000       0.80000        5.0000      4_precip       1.000       0.000        1
rainad_121   log    factor        1.0000       0.80000        5.0000      4_precip       1.000       0.000        1
rainad_122   log    factor        1.0000       0.80000        5.0000      4_precip       1.000       0.000        1
rainad_123   log    factor        1.0000       0.80000        5.0000      4_precip       1.000       0.000        1
rainad_124   log    factor        1.0000       0.80000        5.0000      4_precip       1.000       0.000        1
rainad_125   log    factor        1.0000       0.80000        5.0000      4_precip       1.000       0.000        1
rainad_126   log    factor        1.0000       0.80000        5.0000      4_precip       1.000       0.000        1
rainad_127   log    factor        1.0000       0.80000        5.0000      4_precip       1.000       0.000        1
rainad_128   log    factor        1.0000       0.80000        5.0000      4_precip       1.000       0.000        1
rainad_129   log    factor        1.0000       0.80000        5.0000      4_precip       1.000       0.000        1
rainad_130   log    factor        1.0000       0.80000        5.0000      4_precip       1.000       0.000        1
rainad_131   log    factor        1.0000       0.80000        5.0000      4_precip       1.000       0.000        1
rainad_132   log    factor        1.0000       0.80000        5.0000      4_precip       1.000       0.000        1
rainad_133   log    factor        1.0000       0.80000        5.0000      4_precip       1.000       0.000        1
rainad_134   log    factor        1.0000       0.80000        5.0000      4_precip       1.000       0.000        1
rainad_135   log    factor        1.0000       0.80000        5.0000      4_precip       1.000       0.000        1
rainad_136   log    factor        1.0000       0.80000        5.0000      4_precip       1.000       0.000        1
rainad_137   log    factor        1.0000       0.80000        5.0000      4_precip       1.000       0.000        1
rainad_138   log    factor        1.0000       0.80000        5.0000      4_precip       1.000       0.000        1
rainad_139   log    factor        1.0000       0.80000        5.0000      4_precip       1.000       0.000        1
rainad_140   log    factor        1.0000       0.80000        5.0000      4_precip       1.000       0.000        1
rainad_141   log    factor        1.0000       0.80000        5.0000      4_precip       1.000       0.000        1
rainad_142   log    factor        1.0000       0.80000        5.0000      4_precip       1.000       0.000        1
rainad_143   log    factor        1.0000       0.80000        5.0000      4_precip       1.000       0.000        1
rainad_144   log    factor        1.0000       0.80000        5.0000      4_precip       1.000       0.000        1
rainad_145   log    factor        1.0000       0.80000        5.0000      4_precip       1.000       0.000        1
rainad_146   log    factor        1.0000       0.80000        5.0000      4_precip       1.000       0.000        1
rainad_147   log    factor        1.0000       0.80000        5.0000      4_precip       1.000       0.000        1
rainad_148   log    factor        1.0000       0.80000        5.0000      4_precip       1.000       0.000        1
rainad_149   log    factor        1.0000       0.80000        5.0000      4_precip       1.000       0.000        1
rainad_150   log    factor        1.0000       0.80000        5.0000      4_precip       1.000       0.000        1
rainad_151   log    factor        1.0000       0.80000        5.0000      4_precip       1.000       0.000        1
rainad_152   log    factor        1.0000       0.80000        5.0000      4_precip       1.000       0.000        1
rainad_153   log    factor        1.0000       0.80000        5.0000      4_precip       1.000       0.000        1
rainad_154   log    factor        1.0000       0.80000        5.0000      4_precip       1.000       0.000        1
rainad_155   log    factor        1.0000       0.80000        5.0000      4_precip       1.000       0.000        1
rainad_156   log    factor        1.0000       0.80000        5.0000      4_precip       1.000       0.000        1
rainad_157   log    factor        1.0000       0.80000        5.0000      4_precip       1.000       0.000        1
rainad_158   log    factor        1.0000       0.80000        5.0000      4_precip       1.000       0.000        1
rainad_159   log    factor        1.0000       0.80000        5.0000      4_precip       1.000       0.000        1
rainad_160   log    factor        1.0000       0.80000        5.0000      4_precip       1.000       0.000        1
rainad_161   log    factor        1.0000       0.80000        5.0000      4_precip       1.000       0.000        1
rainad_162   log    factor        1.0000       0.80000        5.0000      4_precip       1.000       0.000        1
rainad_163   log    factor        1.0000       0.80000        5.0000      4_precip       1.000       0.000        1
rainad_164   log    factor        1.0000       0.80000        5.0000      4_precip       1.000       0.000        1
rainad_165   log    factor        1.0000       0.80000        5.0000      4_precip       1.000       0.000        1
rainad_166   log    factor        1.0000       0.80000        5.0000      4_precip       1.000       0.000        1
rainad_167   log    factor        1.0000       0.80000        5.0000      4_precip       1.000       0.000        1
rainad_168   log    factor        1.0000       0.80000        5.0000      4_precip       1.000       0.000        1
rainad_169   log    factor        1.0000       0.80000        5.0000      4_precip       1.000       0.000        1
rainad_170   log    factor        1.0000       0.80000        5.0000      4_precip       1.000       0.000        1
rainad_171   log    factor        1.0000       0.80000        5.0000      4_precip       1.000       0.000        1
rainad_172   log    factor        1.0000       0.80000        5.0000      4_precip       1.000       0.000        1
rainad_173   log    factor        1.0000       0.80000        5.0000      4_precip       1.000       0.000        1
rainad_174   log    factor        1.0000       0.80000        5.0000      4_precip       1.000       0.000        1
rainad_175   log    factor        1.0000       0.80000        5.0000      4_precip       1.000       0.000        1
rainad_176   log    factor        1.0000       0.80000        5.0000      4_precip       1.000       0.000        1
rainad_177   log    factor        1.0000       0.80000        5.0000      4_precip       1.000       0.000        1
rainad_178   log    factor        1.0000       0.80000        5.0000      4_precip       1.000       0.000        1
rainad_179   log    factor        1.0000       0.80000        5.0000      4_precip       1.000       0.000        1
rainad_180   log    factor        1.0000       0.80000        5.0000      4_precip       1.000       0.000        1
rainad_181   log    factor        1.0000       0.80000        5.0000      4_precip       1.000       0.000        1
rainad_182   log    factor        1.0000       0.80000        5.0000      4_precip       1.000       0.000        1
rainad_183   log    factor        1.0000       0.80000        5.0000      4_precip       1.000       0.000        1
rainad_184   log    factor        1.0000       0.80000        5.0000      4_precip       1.000       0.000        1
rainad_185   log    factor        1.0000       0.80000        5.0000      4_precip       1.000       0.000        1
rainad_186   log    factor        1.0000       0.80000        5.0000      4_precip       1.000       0.000        1
rainad_187   log    factor        1.0000       0.80000        5.0000      4_precip       1.000       0.000        1
rainad_188   log    factor        1.0000       0.80000        5.0000      4_precip       1.000       0.000        1
rainad_189   log    factor        1.0000       0.80000        5.0000      4_precip       1.000       0.000        1
rainad_190   log    factor        1.0000       0.80000        5.0000      4_precip       1.000       0.000        1
rainad_191   log    factor        1.0000       0.80000        5.0000      4_precip       1.000       0.000        1
rainad_192   log    factor        1.0000       0.80000        5.0000      4_precip       1.000       0.000        1
rainad_193   log    factor        1.0000       0.80000        5.0000      4_precip       1.000       0.000        1
rainad_194   log    factor        1.0000       0.80000        5.0000      4_precip       1.000       0.000        1
rainad_195   log    factor        1.0000       0.80000        5.0000      4_precip       1.000       0.000        1
rainad_196   log    factor        1.0000       0.80000        5.0000      4_precip       1.000       0.000        1
rainad_197   log    factor        1.0000       0.80000        5.0000      4_precip       1.000       0.000        1
rainad_198   log    factor        1.0000       0.80000        5.0000      4_precip       1.000       0.000        1
rainad_199   log    factor        1.0000       0.80000        5.0000      4_precip       1.000       0.000        1
rainad_200   log    factor        1.0000       0.80000        5.0000      4_precip       1.000       0.000        1
rainad_201   log    factor        1.0000       0.80000        5.0000      4_precip       1.000       0.000        1
rainad_202   log    factor        1.0000       0.80000        5.0000      4_precip       1.000       0.000        1
rainad_203   log    factor        1.0000       0.80000        5.0000      4_precip       1.000       0.000        1
rainad_204   log    factor        1.0000       0.80000        5.0000      4_precip       1.000       0.000        1
rainad_205   log    factor        1.0000       0.80000        5.0000      4_precip       1.000       0.000        1
rainad_206   log    factor        1.0000       0.80000        5.0000      4_precip       1.000       0.000        1
rainad_207   log    factor        1.0000       0.80000        5.0000      4_precip       1.000       0.000        1
rainad_208   log    factor        1.0000       0.80000        5.0000      4_precip       1.000       0.000        1
rainad_209   log    factor        1.0000       0.80000        5.0000      4_precip       1.000       0.000        1
rainad_210   log    factor        1.0000       0.80000        5.0000      4_precip       1.000       0.000        1
rainad_211   log    factor        1.0000       0.80000        5.0000      4_precip       1.000       0.000        1
rainad_212   log    factor        1.0000       0.80000        5.0000      4_precip       1.000       0.000        1
rainad_213   log    factor        1.0000       0.80000        5.0000      4_precip       1.000       0.000        1
rainad_214   log    factor        1.0000       0.80000        5.0000      4_precip       1.000       0.000        1
rainad_215   log    factor        1.0000       0.80000        5.0000      4_precip       1.000       0.000        1
rainad_216   log    factor        1.0000       0.80000        5.0000      4_precip       1.000       0.000        1
rainad_217   log    factor        1.0000       0.80000        5.0000      4_precip       1.000       0.000        1
rainad_218   log    factor        1.0000       0.80000        5.0000      4_precip       1.000       0.000        1
rainad_219   log    factor        1.0000       0.80000        5.0000      4_precip       1.000       0.000        1
rainad_220   log    factor        1.0000       0.80000        5.0000      4_precip       1.000       0.000        1
rainad_221   log    factor        1.0000       0.80000        5.0000      4_precip       1.000       0.000        1
rainad_222   log    factor        1.0000       0.80000        5.0000      4_precip       1.000       0.000        1
rainad_223   log    factor        1.0000       0.80000        5.0000      4_precip       1.000       0.000        1
rainad_224   log    factor        1.0000       0.80000        5.0000      4_precip       1.000       0.000        1
rainad_225   log    factor        1.0000       0.80000        5.0000      4_precip       1.000       0.000        1
rainad_226   log    factor        1.0000       0.80000        5.0000      4_precip       1.000       0.000        1
rainad_227   log    factor        1.0000       0.80000        5.0000      4_precip       1.000       0.000        1
rainad_228   log    factor        1.0000       0.80000        5.0000      4_precip       1.000       0.000        1
rainad_229   log    factor        1.0000       0.80000        5.0000      4_precip       1.000       0.000        1
rainad_230   log    factor        1.0000       0.80000        5.0000      4_precip       1.000       0.000        1
rainad_231   log    factor        1.0000       0.80000        5.0000      4_precip       1.000       0.000        1
rainad_232   log    factor        1.0000       0.80000        5.0000      4_precip       1.000       0.000        1
rainad_233   log    factor        1.0000       0.80000        5.0000      4_precip       1.000       0.000        1
rainad_234   log    factor        1.0000       0.80000        5.0000      4_precip       1.000       0.000        1
rainad_235   log    factor        1.0000       0.80000        5.0000      4_precip       1.000       0.000        1
rainad_236   log    factor        1.0000       0.80000        5.0000      4_precip       1.000       0.000        1
rainad_237   log    factor        1.0000       0.80000        5.0000      4_precip       1.000       0.000        1
rainad_238   log    factor        1.0000       0.80000        5.0000      4_precip       1.000       0.000        1
rainad_239   log    factor        1.0000       0.80000        5.0000      4_precip       1.000       0.000        1
rainad_240   log    factor        1.0000       0.80000        5.0000      4_precip       1.000       0.000        1
* observation groups
solrd_smm
potet_smm
mdwr_smm
wtcr_smm
rdhr_smm
bgrr_smm
csl_s
mdw_s
rcc_s
ssl_s
gb_s1a
gb_s2a
gb_s3a
gb_s4a
jm_s1a
jm_s2a
jm_s3a
jm_s4a
bl_s1a
bl_s2a
bl_s3a
bl_s4a
lc_s1a
lc_s2a
lc_s3a
lc_s4a
yr_s1a
yr_s2a
yr_s3a
yr_s4a
hc_s1a
hc_s2a
hc_s3a
hc_s4a
dc_s1a
dc_s2a
dc_s3a
dc_s4a
gb_shyd
jm_shyd
bl_shyd
lc_shyd
yr_shyd
dc_shyd
gb_sa
gb_smm
gb_smb
jm_sa
jm_smm
jm_smb
bl_sa
bl_smm
bl_smb
lc_sa
lc_smm
lc_smb
yr_sa
yr_smm
yr_smb
dc_sa
dc_smm
dc_smb
hc_sa
hc_smm
hc_smb
* observation data
solrd_smm_1            212.5000         0.00000      solrd_smm
solrd_smm_2            299.6000         0.00000      solrd_smm
solrd_smm_3            400.0000         0.00000      solrd_smm
solrd_smm_4            488.8000         0.00000      solrd_smm
solrd_smm_5            579.7000         0.00000      solrd_smm
solrd_smm_6            664.3000         0.00000      solrd_smm
solrd_smm_7            657.9000         0.00000      solrd_smm
solrd_smm_8            582.3000         0.00000      solrd_smm
solrd_smm_9            469.6000         0.00000      solrd_smm
solrd_smm_10           353.3000         0.00000      solrd_smm
solrd_smm_11           233.4000         0.00000      solrd_smm
solrd_smm_12           204.1000         0.00000      solrd_smm
potet_smm_1           0.3388000E-01     0.00000      potet_smm
potet_smm_2           0.5199000E-01     0.00000      potet_smm
potet_smm_3           0.8800000E-01     0.00000      potet_smm