pcf
* control data
restart  estimation
    3    16     3     0     1
    1     1 single point 1 0 0
  5.0   2.0   0.3  0.03    10
  3.0   3.0 0.001
  0.1
   30  0.01     3     3  0.01     3
    1     1     1
* parameter groups
recharge relative 0.01  0.0  switch  2.0 parabolic
cond     relative 0.01  0.0  switch  2.0 parabolic
scoeff   relative 0.01  0.0  switch  2.0 parabolic
* parameter data
recharge fixed factor    0.1     1.0e-10   1.0e10 recharge  1.0   0.0  1
cond     log   factor    5.0E-3  1.0e-10   1.0e10 cond      1.0   0.0  1
scoeff   log   factor    5.0E-2  1.0e-10   1.0e10 scoeff    1.0   0.0  1
* observation groups
obsgroup
* observation data
head1     4.998750E-02  1.0  obsgroup
head2     9.995002E-02  1.0  obsgroup
head3     0.249688      1.0  obsgroup
head4     0.498752      1.0  obsgroup
head5     0.955017      1.0  obsgroup
head6      2.66901      1.0  obsgroup
head7      4.67706      1.0  obsgroup
head8      9.81626      1.0  obsgroup
head9      21.8199      1.0  obsgroup
head10     40.8469      1.0  obsgroup
head11     63.2121      0.0  obsgroup
head12     91.7915      0.0  obsgroup
head13     99.3262      0.0  obsgroup
head14     99.9955      0.0  obsgroup
head15     100.000      0.0  obsgroup
head16     100.000      0.0  obsgroup
* model command line
storageD
* model input/output
input.tpl   input.dat
output.ins  output.dat
* prior information