pcf
* control data
restart regularisation
    150   10489       1       0      23
    1    4 double point  1    0  0
   20.000       -3.0000      0.3  0.03  10     999  lamforgive
      0.100  10.0  0.001
 0.1
    50  0.005  4  4  0.005  4
1  1  1  1 nojcosaveitn reisaveitn
* singular value decomposition
     1
   150  5.0000000E-07
     1
* svd assist
columbia.pst
columbia.jco
    1    2    0    1    0
* parameter groups
 pargp absolute    0.015  0.0  switch    2.0 parabolic
* parameter data
par1                    none              relative    1.000000E+01    1.000000E-20    1.000000E+20                 pargp    1.000000E+00   -1.000000E+01          1
par2                    none              relative    1.000000E+01    1.000000E-20    1.000000E+20                 pargp    1.000000E+00   -1.000000E+01          1
par3                    none              relative    1.000000E+01    1.000000E-20    1.000000E+20                 pargp    1.000000E+00   -1.000000E+01          1
par4                    none              relative    1.000000E+01    1.000000E-20    1.000000E+20                 pargp    1.000000E+00   -1.000000E+01          1
par5                    none              relative    1.000000E+01    1.000000E-20    1.000000E+20                 pargp    1.000000E+00   -1.000000E+01          1
par6                    none              relative    1.000000E+01    1.000000E-20    1.000000E+20                 pargp    1.000000E+00   -1.000000E+01          1
par7                    none              relative    1.000000E+01    1.000000E-20    1.000000E+20                 pargp    1.000000E+00   -1.000000E+01          1
par8                    none              relative    1.000000E+01    1.000000E-20    1.000000E+20                 pargp    1.000000E+00   -1.000000E+01          1
par9                    none              relative    1.000000E+01    1.000000E-20    1.000000E+20                 pargp    1.000000E+00   -1.000000E+01          1
par10                   none              relative    1.000000E+01    1.000000E-20    1.000000E+20                 pargp    1.000000E+00   -1.000000E+01          1
par11                   none              relative    1.000000E+01    1.000000E-20    1.000000E+20                 pargp    1.000000E+00   -1.000000E+01          1
par12                   none              relative    1.000000E+01    1.000000E-20    1.000000E+20                 pargp    1.000000E+00   -1.000000E+01          1
par13                   none              relative    1.000000E+01    1.000000E-20    1.000000E+20                 pargp    1.000000E+00   -1.000000E+01          1
par14                   none              relative    1.000000E+01    1.000000E-20    1.000000E+20                 pargp    1.000000E+00   -1.000000E+01          1
par15                   none              relative    1.000000E+01    1.000000E-20    1.000000E+20                 pargp    1.000000E+00   -1.000000E+01          1
par16                   none              relative    1.000000E+01    1.000000E-20    1.000000E+20                 pargp    1.000000E+00   -1.000000E+01          1
par17                   none              relative    1.000000E+01    1.000000E-20    1.000000E+20                 pargp    1.000000E+00   -1.000000E+01          1
par18                   none              relative    1.000000E+01    1.000000E-20    1.000000E+20                 pargp    1.000000E+00   -1.000000E+01          1
par19                   none              relative    1.000000E+01    1.000000E-20    1.000000E+20                 pargp    1.000000E+00   -1.000000E+01          1
par20                   none              relative    1.000000E+01    1.000000E-20    1.000000E+20                 pargp    1.000000E+00   -1.000000E+01          1
par21                   none              relative    1.000000E+01    1.000000E-20    1.000000E+20                 pargp    1.000000E+00   -1.000000E+01          1
par22                   none              relative    1.000000E+01    1.000000E-20    1.000000E+20                 pargp    1.000000E+00   -1.000000E+01          1
par23                   none              relative    1.000000E+01    1.000000E-20    1.000000E+20                 pargp    1.000000E+00   -1.000000E+01          1
par24                   none              relative    1.000000E+01    1.000000E-20    1.000000E+20                 pargp    1.000000E+00   -1.000000E+01          1
par25                   none              relative    1.000000E+01    1.000000E-20    1.000000E+20                 pargp    1.000000E+00   -1.000000E+01          1
par26                   none              relative    1.000000E+01    1.000000E-20    1.000000E+20                 pargp    1.000000E+00   -1.000000E+01          1
par27                   none              relative    1.000000E+01    1.000000E-20    1.000000E+20                 pargp    1.000000E+00   -1.000000E+01          1
par28                   none              relative    1.000000E+01    1.000000E-20    1.000000E+20                 pargp    1.000000E+00   -1.000000E+01          1
par29                   none              relative    1.000000E+01    1.000000E-20    1.000000E+20                 pargp    1.000000E+00   -1.000000E+01          1
par30                   none              relative    1.000000E+01    1.000000E-20    1.000000E+20                 pargp    1.000000E+00   -1.000000E+01          1
par31                   none              relative    1.000000E+01    1.000000E-20    1.000000E+20                 pargp    1.000000E+00   -1.000000E+01          1
par32                   none              relative    1.000000E+01    1.000000E-20    1.000000E+20                 pargp    1.000000E+00   -1.000000E+01          1
par33                   none              relative    1.000000E+01    1.000000E-20    1.000000E+20                 pargp    1.000000E+00   -1.000000E+01          1
par34                   none              relative    1.000000E+01    1.000000E-20    1.000000E+20                 pargp    1.000000E+00   -1.000000E+01          1
par35                   none              relative    1.000000E+01    1.000000E-20    1.000000E+20                 pargp    1.000000E+00   -1.000000E+01          1
par36                   none              relative    1.000000E+01    1.000000E-20    1.000000E+20                 pargp    1.000000E+00   -1.000000E+01          1
par37                   none              relative    1.000000E+01    1.000000E-20    1.000000E+20                 pargp    1.000000E+00   -1.000000E+01          1
par38                   none              relative    1.000000E+01    1.000000E-20    1.000000E+20                 pargp    1.000000E+00   -1.000000E+01          1
par39                   none              relative    1.000000E+01    1.000000E-20    1.000000E+20                 pargp    1.000000E+00   -1.000000E+01          1
par40                   none              relative    1.000000E+01    1.000000E-20    1.000000E+20                 pargp    1.000000E+00   -1.000000E+01          1
par41                   none              relative    1.000000E+01    1.000000E-20    1.000000E+20                 pargp    1.000000E+00   -1.000000E+01          1
par42                   none              relative    1.000000E+01    1.000000E-20    1.000000E+20                 pargp    1.000000E+00   -1.000000E+01          1
par43                   none              relative    1.000000E+01    1.000000E-20    1.000000E+20                 pargp    1.000000E+00   -1.000000E+01          1
par44                   none              relative    1.000000E+01    1.000000E-20    1.000000E+20                 pargp    1.000000E+00   -1.000000E+01          1
par45                   none              relative    1.000000E+01    1.000000E-20    1.000000E+20                 pargp    1.000000E+00   -1.000000E+01          1
par46                   none              relative    1.000000E+01    1.000000E-20    1.000000E+20                 pargp    1.000000E+00   -1.000000E+01          1
par47                   none              relative    1.000000E+01    1.000000E-20    1.000000E+20                 pargp    1.000000E+00   -1.000000E+01          1
par48                   none              relative    1.000000E+01    1.000000E-20    1.000000E+20                 pargp    1.000000E+00   -1.000000E+01          1
par49                   none              relative    1.000000E+01    1.000000E-20    1.000000E+20                 pargp    1.000000E+00   -1.000000E+01          1
par50                   none              relative    1.000000E+01    1.000000E-20    1.000000E+20                 pargp    1.000000E+00   -1.000000E+01          1
par51                   none              relative    1.000000E+01    1.000000E-20    1.000000E+20                 pargp    1.000000E+00   -1.000000E+01          1
par52                   none              relative    1.000000E+01    1.000000E-20    1.000000E+20                 pargp    1.000000E+00   -1.000000E+01          1
par53                   none              relative    1.000000E+01    1.000000E-20    1.000000E+20                 pargp    1.000000E+00   -1.000000E+01          1
par54                   none              relative    1.000000E+01    1.000000E-20    1.000000E+20                 pargp    1.000000E+00   -1.000000E+01          1
par55                   none              relative    1.000000E+01    1.000000E-20    1.000000E+20                 pargp    1.000000E+00   -1.000000E+01          1
par56                   none              relative    1.000000E+01    1.000000E-20    1.000000E+20                 pargp    1.000000E+00   -1.000000E+01          1
par57                   none              relative    1.000000E+01    1.000000E-20    1.000000E+20                 pargp    1.000000E+00   -1.000000E+01          1
par58                   none              relative    1.000000E+01    1.000000E-20    1.000000E+20                 pargp    1.000000E+00   -1.000000E+01          1
par59                   none              relative    1.000000E+01    1.000000E-20    1.000000E+20                 pargp    1.000000E+00   -1.000000E+01          1
par60                   none              relative    1.000000E+01    1.000000E-20    1.000000E+20                 pargp    1.000000E+00   -1.000000E+01          1
par61                   none              relative    1.000000E+01    1.000000E-20    1.000000E+20                 pargp    1.000000E+00   -1.000000E+01          1
par62                   none              relative    1.000000E+01    1.000000E-20    1.000000E+20                 pargp    1.000000E+00   -1.000000E+01          1
par63                   none              relative    1.000000E+01    1.000000E-20    1.000000E+20                 pargp    1.000000E+00   -1.000000E+01          1
par64                   none              relative    1.000000E+01    1.000000E-20    1.000000E+20                 pargp    1.000000E+00   -1.000000E+01          1
par65                   none              relative    1.000000E+01    1.000000E-20    1.000000E+20                 pargp    1.000000E+00   -1.000000E+01          1
par66                   none              relative    1.000000E+01    1.000000E-20    1.000000E+20                 pargp    1.000000E+00   -1.000000E+01          1
par67                   none              relative    1.000000E+01    1.000000E-20    1.000000E+20                 pargp    1.000000E+00   -1.000000E+01          1
par68                   none              relative    1.000000E+01    1.000000E-20    1.000000E+20                 pargp    1.000000E+00   -1.000000E+01          1
par69                   none              relative    1.000000E+01    1.000000E-20    1.000000E+20                 pargp    1.000000E+00   -1.000000E+01          1
par70                   none              relative    1.000000E+01    1.000000E-20    1.000000E+20                 pargp    1.000000E+00   -1.000000E+01          1
par71                   none              relative    1.000000E+01    1.000000E-20    1.000000E+20                 pargp    1.000000E+00   -1.000000E+01          1
par72                   none              relative    1.000000E+01    1.000000E-20    1.000000E+20                 pargp    1.000000E+00   -1.000000E+01          1
par73                   none              relative    1.000000E+01    1.000000E-20    1.000000E+20                 pargp    1.000000E+00   -1.000000E+01          1
par74                   none              relative    1.000000E+01    1.000000E-20    1.000000E+20                 pargp    1.000000E+00   -1.000000E+01          1
par75                   none              relative    1.000000E+01    1.000000E-20    1.000000E+20                 pargp    1.000000E+00   -1.000000E+01          1
par76                   none              relative    1.000000E+01    1.000000E-20    1.000000E+20                 pargp    1.000000E+00   -1.000000E+01          1
par77                   none              relative    1.000000E+01    1.000000E-20    1.000000E+20                 pargp    1.000000E+00   -1.000000E+01          1
par78                   none              relative    1.000000E+01    1.000000E-20    1.000000E+20                 pargp    1.000000E+00   -1.000000E+01          1
par79                   none              relative    1.000000E+01    1.000000E-20    1.000000E+20                 pargp    1.000000E+00   -1.000000E+01          1
par80                   none              relative    1.000000E+01    1.000000E-20    1.000000E+20                 pargp    1.000000E+00   -1.000000E+01          1
par81                   none              relative    1.000000E+01    1.000000E-20    1.000000E+20                 pargp    1.000000E+00   -1.000000E+01          1
par82                   none              relative    1.000000E+01    1.000000E-20    1.000000E+20                 pargp    1.000000E+00   -1.000000E+01          1
par83                   none              relative    1.000000E+01    1.000000E-20    1.000000E+20                 pargp    1.000000E+00   -1.000000E+01          1
par84                   none              relative    1.000000E+01    1.000000E-20    1.000000E+20                 pargp    1.000000E+00   -1.000000E+01          1
par85                   none              relative    1.000000E+01    1.000000E-20    1.000000E+20                 pargp    1.000000E+00   -1.000000E+01          1
par86                   none              relative    1.000000E+01    1.000000E-20    1.000000E+20                 pargp    1.000000E+00   -1.000000E+01          1
par87                   none              relative    1.000000E+01    1.000000E-20    1.000000E+20                 pargp    1.000000E+00   -1.000000E+01          1
par88                   none              relative    1.000000E+01    1.000000E-20    1.000000E+20                 pargp    1.000000E+00   -1.000000E+01          1
par89                   none              relative    1.000000E+01    1.000000E-20    1.000000E+20                 pargp    1.000000E+00   -1.000000E+01          1
par90                   none              relative    1.000000E+01    1.000000E-20    1.000000E+20                 pargp    1.000000E+00   -1.000000E+01          1
par91                   none              relative    1.000000E+01    1.000000E-20    1.000000E+20                 pargp    1.000000E+00   -1.000000E+01          1
par92                   none              relative    1.000000E+01    1.000000E-20    1.000000E+20                 pargp    1.000000E+00   -1.000000E+01          1
par93                   none              relative    1.000000E+01    1.000000E-20    1.000000E+20                 pargp    1.000000E+00   -1.000000E+01          1
par94                   none              relative    1.000000E+01    1.000000E-20    1.000000E+20                 pargp    1.000000E+00   -1.000000E+01          1
par95                   none              relative    1.000000E+01    1.000000E-20    1.000000E+20                 pargp    1.000000E+00   -1.000000E+01          1
par96                   none              relative    1.000000E+01    1.000000E-20    1.000000E+20                 pargp    1.000000E+00   -1.000000E+01          1
par97                   none              relative    1.000000E+01    1.000000E-20    1.000000E+20                 pargp    1.000000E+00   -1.000000E+01          1
par98                   none              relative    1.000000E+01    1.000000E-20    1.000000E+20                 pargp    1.000000E+00   -1.000000E+01          1
par99                   none              relative    1.000000E+01    1.000000E-20    1.000000E+20                 pargp    1.000000E+00   -1.000000E+01          1
par100                  none              relative    1.000000E+01    1.000000E-20    1.000000E+20                 pargp    1.000000E+00   -1.000000E+01          1
par101                  none              relative    1.000000E+01    1.000000E-20    1.000000E+20                 pargp    1.000000E+00   -1.000000E+01          1
par102                  none              relative    1.000000E+01    1.000000E-20    1.000000E+20                 pargp    1.000000E+00   -1.000000E+01          1
par103                  none              relative    1.000000E+01    1.000000E-20    1.000000E+20                 pargp    1.000000E+00   -1.000000E+01          1
par104                  none              relative    1.000000E+01    1.000000E-20    1.000000E+20                 pargp    1.000000E+00   -1.000000E+01          1
par105                  none              relative    1.000000E+01    1.000000E-20    1.000000E+20                 pargp    1.000000E+00   -1.000000E+01          1
par106                  none              relative    1.000000E+01    1.000000E-20    1.000000E+20                 pargp    1.000000E+00   -1.000000E+01          1
par107                  none              relative    1.000000E+01    1.000000E-20    1.000000E+20                 pargp    1.000000E+00   -1.000000E+01          1
par108                  none              relative    1.000000E+01    1.000000E-20    1.000000E+20                 pargp    1.000000E+00   -1.000000E+01          1
par109                  none              relative    1.000000E+01    1.000000E-20    1.000000E+20                 pargp    1.000000E+00   -1.000000E+01          1
par110                  none              relative    1.000000E+01    1.000000E-20    1.000000E+20                 pargp    1.000000E+00   -1.000000E+01          1
par111                  none              relative    1.000000E+01    1.000000E-20    1.000000E+20                 pargp    1.000000E+00   -1.000000E+01          1
par112                  none              relative    1.000000E+01    1.000000E-20    1.000000E+20                 pargp    1.000000E+00   -1.000000E+01          1
par113                  none              relative    1.000000E+01    1.000000E-20    1.000000E+20                 pargp    1.000000E+00   -1.000000E+01          1
par114                  none              relative    1.000000E+01    1.000000E-20    1.000000E+20                 pargp    1.000000E+00   -1.000000E+01          1
par115                  none              relative    1.000000E+01    1.000000E-20    1.000000E+20                 pargp    1.000000E+00   -1.000000E+01          1
par116                  none              relative    1.000000E+01    1.000000E-20    1.000000E+20                 pargp    1.000000E+00   -1.000000E+01          1
par117                  none              relative    1.000000E+01    1.000000E-20    1.000000E+20                 pargp    1.000000E+00   -1.000000E+01          1
par118                  none              relative    1.000000E+01    1.000000E-20    1.000000E+20                 pargp    1.000000E+00   -1.000000E+01          1
par119                  none              relative    1.000000E+01    1.000000E-20    1.000000E+20                 pargp    1.000000E+00   -1.000000E+01          1
par120                  none              relative    1.000000E+01    1.000000E-20    1.000000E+20                 pargp    1.000000E+00   -1.000000E+01          1
par121                  none              relative    1.000000E+01    1.000000E-20    1.000000E+20                 pargp    1.000000E+00   -1.000000E+01          1
par122                  none              relative    1.000000E+01    1.000000E-20    1.000000E+20                 pargp    1.000000E+00   -1.000000E+01          1
par123                  none              relative    1.000000E+01    1.000000E-20    1.000000E+20                 pargp    1.000000E+00   -1.000000E+01          1
par124                  none              relative    1.000000E+01    1.000000E-20    1.000000E+20                 pargp    1.000000E+00   -1.000000E+01          1
par125                  none              relative    1.000000E+01    1.000000E-20    1.000000E+20                 pargp    1.000000E+00   -1.000000E+01          1
par126                  none              relative    1.000000E+01    1.000000E-20    1.000000E+20                 pargp    1.000000E+00   -1.000000E+01          1
par127                  none              relative    1.000000E+01    1.000000E-20    1.000000E+20                 pargp    1.000000E+00   -1.000000E+01          1
par128                  none              relative    1.000000E+01    1.000000E-20    1.000000E+20                 pargp    1.000000E+00   -1.000000E+01          1
par129                  none              relative    1.000000E+01    1.000000E-20    1.000000E+20                 pargp    1.000000E+00   -1.000000E+01          1
par130                  none              relative    1.000000E+01    1.000000E-20    1.000000E+20                 pargp    1.000000E+00   -1.000000E+01          1
par131                  none              relative    1.000000E+01    1.000000E-20    1.000000E+20                 pargp    1.000000E+00   -1.000000E+01          1
par132                  none              relative    1.000000E+01    1.000000E-20    1.000000E+20                 pargp    1.000000E+00   -1.000000E+01          1
par133                  none              relative    1.000000E+01    1.000000E-20    1.000000E+20                 pargp    1.000000E+00   -1.000000E+01          1
par134                  none              relative    1.000000E+01    1.000000E-20    1.000000E+20                 pargp    1.000000E+00   -1.000000E+01          1
par135                  none              relative    1.000000E+01    1.000000E-20    1.000000E+20                 pargp    1.000000E+00   -1.000000E+01          1
par136                  none              relative    1.000000E+01    1.000000E-20    1.000000E+20                 pargp    1.000000E+00   -1.000000E+01          1
par137                  none              relative    1.000000E+01    1.000000E-20    1.000000E+20                 pargp    1.000000E+00   -1.000000E+01          1
par138                  none              relative    1.000000E+01    1.000000E-20    1.000000E+20                 pargp    1.000000E+00   -1.000000E+01          1
par139                  none              relative    1.000000E+01    1.000000E-20    1.000000E+20                 pargp    1.000000E+00   -1.000000E+01          1
par140                  none              relative    1.000000E+01    1.000000E-20    1.000000E+20                 pargp    1.000000E+00   -1.000000E+01          1
par141                  none              relative    1.000000E+01    1.000000E-20    1.000000E+20                 pargp    1.000000E+00   -1.000000E+01          1
par142                  none              relative    1.000000E+01    1.000000E-20    1.000000E+20                 pargp    1.000000E+00   -1.000000E+01          1
par143                  none              relative    1.000000E+01    1.000000E-20    1.000000E+20                 pargp    1.000000E+00   -1.000000E+01          1
par144                  none              relative    1.000000E+01    1.000000E-20    1.000000E+20                 pargp    1.000000E+00   -1.000000E+01          1
par145                  none              relative    1.000000E+01    1.000000E-20    1.000000E+20                 pargp    1.000000E+00   -1.000000E+01          1
par146                  none              relative    1.000000E+01    1.000000E-20    1.000000E+20                 pargp    1.000000E+00   -1.000000E+01          1
par147                  none              relative    1.000000E+01    1.000000E-20    1.000000E+20                 pargp    1.000000E+00   -1.000000E+01          1
par148                  none              relative    1.000000E+01    1.000000E-20    1.000000E+20                 pargp    1.000000E+00   -1.000000E+01          1
par149                  none              relative    1.000000E+01    1.000000E-20    1.000000E+20                 pargp    1.000000E+00   -1.000000E+01          1
par150                  none              relative    1.000000E+01    1.000000E-20    1.000000E+20                 pargp    1.000000E+00   -1.000000E+01          1
* observation groups
dhdz
regul_rech
cc_streams
headwaters
head_fair
regul_kp6
regul_kp4
regul_kp5
head_best
regul_kz4
regul_kz5
regul_kz6
regul_kz3
sm_streams
regul_kp
head_poor
head_good
wcrs1
wcrs2
regul_kz
lrg_streams
regul_kp3
zero_streams
* observation data
7089222501_b       8.581300E+02    2.000000E-01             head_best
1089192101_b       8.932400E+02    2.000000E-01             head_best
2089103101_b       9.246000E+02    2.000000E-01             head_best
3089103201_b       9.114400E+02    2.000000E-01             head_best
2089475301_b       7.292500E+02    2.000000E-01             head_best
0089440001_b       8.154100E+02    2.000000E-01             head_best
1089460101_b       7.983700E+02    2.000000E-01             head_best
5088552601_b       8.525900E+02    2.000000E-01             head_best
4089114801_b       9.644300E+02    2.000000E-01             head_best
2089204601_b       8.119700E+02    2.000000E-01             head_best
6089275601_b       7.835300E+02    2.000000E-01             head_best
4089100701_b       7.911000E+02    2.000000E-01             head_best
4089471201_b       8.596400E+02    2.000000E-01             head_best
1089365001_b       8.798800E+02    2.000000E-01             head_best
5089184801_b       7.909200E+02    2.000000E-01             head_best
0089481301_g       7.547500E+02    2.000000E-01             head_good
7088590201_g       8.130000E+02    2.000000E-01             head_good
0088561001_g       8.030000E+02    2.000000E-01             head_good
6089470201_g       7.450000E+02    2.000000E-01             head_good
6089414401_g       8.300000E+02    2.000000E-01             head_good
6088593801_g       8.350000E+02    2.000000E-01             head_good
7088563401_g       8.370000E+02    2.000000E-01             head_good
7088565901_g       7.910000E+02    2.000000E-01             head_good
7089483001_g       7.281700E+02    2.000000E-01             head_good
2089433401_g       7.097400E+02    2.000000E-01             head_good
6088541201_g       8.699100E+02    2.000000E-01             head_good
3089460301_g       7.694100E+02    2.000000E-01             head_good
3089215301_g       8.853300E+02    2.000000E-01             head_good
6089423701_g       8.410900E+02    2.000000E-01             head_good
2089432801_g       8.664100E+02    2.000000E-01             head_good
8089162501_g       9.365300E+02    2.000000E-01             head_good
6089235301_g       7.800000E+02    2.000000E-01             head_good
3089270501_g       7.828100E+02    2.000000E-01             head_good
9089510601_g       8.884500E+02    2.000000E-01             head_good
1088585501_g       8.784000E+02    2.000000E-01             head_good
8210891935_f       8.515000E+02    3.330000E-02             head_fair
5089204601_f       8.180000E+02    3.330000E-02             head_fair
2089234101_f       8.534500E+02    3.330000E-02             head_fair
0088575601_f       8.370000E+02    3.330000E-02             head_fair
2088560501_f       7.850000E+02    3.330000E-02             head_fair
4089223102_f       8.527500E+02    3.330000E-02             head_fair
8480892143_f       8.540000E+02    3.330000E-02             head_fair
5089223401_f       8.520000E+02    3.330000E-02             head_fair
4089095201_f       8.940000E+02    3.330000E-02             head_fair
4089215501_f       8.580000E+02    3.330000E-02             head_fair
9089313401_f       9.350000E+02    3.330000E-02             head_fair
8089251801_f       8.610000E+02    3.330000E-02             head_fair
6089461001_f       7.850000E+02    3.330000E-02             head_fair
0089015001_f       8.420000E+02    3.330000E-02             head_fair
1089254001_f       8.500000E+02    3.330000E-02             head_fair
4088542001_f       7.500000E+02    3.330000E-02             head_fair
4089231501_f       8.600000E+02    3.330000E-02             head_fair
0089040601_f       8.370000E+02    3.330000E-02             head_fair
4089033701_f       8.420000E+02    3.330000E-02             head_fair
9089352101_f       9.349800E+02    3.330000E-02             head_fair
6089473001_f       7.930000E+02    3.330000E-02             head_fair
4089502001_f       7.370000E+02    3.330000E-02             head_fair
0089474001_f       7.510000E+02    3.330000E-02             head_fair
6088475301_f       8.040000E+02    3.330000E-02             head_fair
7089494001_f       7.480000E+02    3.330000E-02             head_fair
5089151601_f       8.860000E+02    3.330000E-02             head_fair
1089352101_f       9.270000E+02    3.330000E-02             head_fair
1089481401_f       7.509600E+02    3.330000E-02             head_fair
2089002001_f       8.210000E+02    3.330000E-02             head_fair
0520890023_f       8.220000E+02    3.330000E-02             head_fair