pcf
* control data
restart estimation
3 1279 2 0 2
1  1  double  point  1  0  0
1.000000e+001  2.000000e+000  3.000000e-001  1.000000e-002  10
1.000000e+001  1.000000e+001  1.000000e-003
1.000000e-001 noaui
25  1.000000e-002  3  3  1.000000e-002  3 **** CONTROLS OPTIMIZATION: SEE PEST MANUAL ****
1  1  1
* parameter groups
Kh     relative   1.000000e-002  0.000000e+000  switch  2.000000e+000  parabolic
Rch    relative   1.000000e-002  0.000000e+000  switch  2.000000e+000  parabolic
* parameter data
K1__________	log   factor   15	 1.5	 150	Kh     1.0      0.0 1
RMiddle_____	none  factor   .001321	 .0001321	 .01321	Rch    -1.0     0.0 1
RSouth______	none  factor   .001462	 .0001462	 .01462	Rch    -1.0     0.0 1
* observation groups
Head
Streamflow
* observation data
15 903.64	0.100000 Head
16 910.22	0.100000 Head
17 909.89	0.100000 Head
18 920.28	0.100000 Head
19 911.68	0.100000 Head
20 917	0.100000 Head
21 895.02	0.100000 Head
22 895.55	0.100000 Head
23 908.89	0.100000 Head
24 899.92	0.100000 Head
25 909.31	0.100000 Head
26 885.26	0.100000 Head
27 918.62	0.100000 Head
28 934.75	0.100000 Head
29 904.55	0.100000 Head
30 895.92	0.100000 Head
31 910.25	0.100000 Head
32 903.12	0.100000 Head
33 878.9	0.100000 Head
34 914.32	0.100000 Head
35 914.69	0.100000 Head
36 875.69	0.100000 Head
37 894.09	0.100000 Head
38 893.52	0.100000 Head
39 900.99	0.100000 Head
40 913.59	0.100000 Head
41 865.2	0.100000 Head
42 919.74	0.100000 Head
43 919.31	0.100000 Head
44 911.27	0.100000 Head
45 822.12	0.100000 Head
46 824.22	0.100000 Head
47 842.52	0.100000 Head
48 907.13	0.100000 Head
49 989.94	0.100000 Head
50 837.73	0.100000 Head
51 870.91	0.100000 Head
65 911.64	0.100000 Head
66 922.28	0.100000 Head
67 910.78	0.100000 Head
68 925.17	0.100000 Head
69 925.6	0.100000 Head
70 922	0.100000 Head
71 901.14	0.100000 Head
72 914.16	0.100000 Head
73 920.17	0.100000 Head
74 920.17	0.100000 Head
75 929.88	0.100000 Head
76 918.91	0.100000 Head
77 917.89	0.100000 Head
78 930.34	0.100000 Head
79 921.39	0.100000 Head
80 919.12	0.100000 Head
81 922.12	0.100000 Head
82 970	0.100000 Head
83 924.9	0.100000 Head
84 916.45	0.100000 Head
85 941.79	0.100000 Head
86 943.76	0.100000 Head
87 909.32	0.100000 Head
88 910.83	0.100000 Head
89 950.91	0.100000 Head
90 966.43	0.100000 Head
91 975.13	0.100000 Head
92 966.25	0.100000 Head
93 970.07	0.100000 Head
94 962.44	0.100000 Head
95 948.44	0.100000 Head
96 920.62	0.100000 Head
97 953.73	0.100000 Head
98 980.24	0.100000 Head
99 975.45	0.100000 Head
625 954.55	0.100000 Head
626 947.01	0.100000 Head
627 978.02	0.100000 Head
628 919.11	0.100000 Head
629 921.56	0.100000 Head
631 936.44	0.100000 Head
632 908.82	0.100000 Head
633 912.63	0.100000 Head
634 940.62	0.100000 Head
635 948.07	0.100000 Head
636 939.56	0.100000 Head
637 916.86	0.100000 Head
638 935.86	0.100000 Head
639 916.14	0.100000 Head
640 902.02	0.100000 Head
641 932.34	0.100000 Head
642 936.22	0.100000 Head
643 934.2	0.100000 Head
644 936.98	0.100000 Head
645 929.55	0.100000 Head
646 939.4	0.100000 Head
647 940.01	0.100000 Head
648 908.04	0.100000 Head
649 907.08	0.100000 Head
650 942.17	0.100000 Head
651 951.33	0.100000 Head
652 902.02	0.100000 Head
653 921.42	0.100000 Head
654 948.9	0.100000 Head
655 910.06	0.100000 Head
656 947	0.100000 Head
657 906.47	0.100000 Head
658 902.02	0.100000 Head
659 927.14	0.100000 Head
660 936.05	0.100000 Head
661 914.64	0.100000 Head
662 953.42	0.100000 Head
663 929.5	0.100000 Head
672 928.88	0.100000 Head
675 921.29	0.100000 Head
676 928.11	0.100000 Head
677 909.81	0.100000 Head
679 909.32	0.100000 Head
680 910.22	0.100000 Head
681 941.3	0.100000 Head
682 905.1	0.100000 Head
683 905.83	0.100000 Head
684 905.1	0.100000 Head
685 895.62	0.100000 Head
688 966	0.100000 Head
689 910	0.100000 Head
690 915	0.100000 Head
691 901	0.100000 Head
692 918	0.100000 Head
693 921	0.100000 Head
694 910	0.100000 Head
695 950	0.100000 Head
696 955	0.100000 Head
697 975	0.100000 Head
699 910	0.100000 Head
700 931	0.100000 Head
701 900	0.100000 Head
702 920	0.100000 Head
703 920	0.100000 Head
704 924	0.100000 Head
705 944	0.100000 Head
706 924	0.100000 Head
707 924	0.100000 Head
708 945	0.100000 Head
709 950	0.100000 Head
710 921	0.100000 Head
711 980	0.100000 Head
712 953	0.100000 Head
713 970	0.100000 Head
714 910	0.100000 Head
715 921	0.100000 Head
716 922	0.100000 Head
717 923	0.100000 Head
718 923	0.100000 Head
719 916	0.100000 Head
720 923	0.100000 Head
721 970	0.100000 Head
722 930	0.100000 Head
723 912	0.100000 Head
724 919	0.100000 Head
725 971	0.100000 Head
2150 933	0.100000 Head
2151 937	0.100000 Head
2152 925	0.100000 Head
2153 972	0.100000 Head
2154 911	0.100000 Head
2155 910	0.100000 Head
2157 983	0.100000 Head
2158 940	0.100000 Head
2159 914	0.100000 Head
2160 944	0.100000 Head
2161 928	0.100000 Head
2164 980	0.100000 Head
2165 934	0.100000 Head
2166 958	0.100000 Head
2174 914	0.100000 Head
2175 947	0.100000 Head
2176 915	0.100000 Head
2178 920	0.100000 Head
2183 922	0.100000 Head
2184 922	0.100000 Head
2186 911	0.100000 Head
2187 911	0.100000 Head
2188 920	0.100000 Head
2189 946	0.100000 Head
2190 912	0.100000 Head
2192 923	0.100000 Head
2193 927	0.100000 Head
2195 924	0.100000 Head
2198 941	0.100000 Head
2199 919	0.100000 Head
2202 941	0.100000 Head
2206 923	0.100000 Head
2207 923	0.100000 Head
2208 923	0.100000 Head
2209 930	0.100000 Head
2211 932	0.100000 Head
2212 922	0.100000 Head
2213 923	0.100000 Head
2219 932	0.100000 Head
2220 920	0.100000 Head
2222 908	0.100000 Head
2223 930	0.100000 Head
2224 941	0.100000 Head
2225 925	0.100000 Head
2227 908	0.100000 Head
2229 915	0.100000 Head
2230 930	0.100000 Head
2232 905	0.100000 Head
2236 931	0.100000 Head
2240 910	0.100000 Head
2243 907	0.100000 Head
2244 942	0.100000 Head
2246 960	0.100000 Head
2248 961	0.100000 Head
2250 982	0.100000 Head
2253 938	0.100000 Head
2257 912	0.100000 Head
2259 914	0.100000 Head
2260 904	0.100000 Head
2270 915	0.100000 Head
2277 913	0.100000 Head
2278 912	0.100000 Head
2283 912	0.100000 Head
2284 934	0.100000 Head
2285 952	0.100000 Head
2289 925	0.100000 Head
2292 908	0.100000 Head
2293 908	0.100000 Head
2299 913	0.100000 Head
2302 910	0.100000 Head
2305 930	0.100000 Head
2306 919	0.100000 Head
2309 910	0.100000 Head
2313 922	0.100000 Head
2314 931	0.100000 Head
2319 930	0.100000 Head
2321 911	0.100000 Head
2322 975	0.100000 Head
2329 976	0.100000 Head
2330 900	0.100000 Head
2331 932	0.100000 Head
2334 907	0.100000 Head
2337 910	0.100000 Head
2339 908	0.100000 Head
2340 905	0.100000 Head
2343 906	0.100000 Head
2344 912	0.100000 Head
2348 912	0.100000 Head
2354 956	0.100000 Head
2355 913	0.100000 Head
2358 908	0.100000 Head
2370 935	0.100000 Head
2373 974	0.100000 Head
2376 956	0.100000 Head
2377 925	0.100000 Head
2378 925	0.100000 Head
2381 931	0.100000 Head
2382 905	0.100000 Head
2384 964	0.100000 Head
2386 904	0.100000 Head
2388 932	0.100000 Head
2394 927	0.100000 Head
2395 938	0.100000 Head
2398 980	0.100000 Head
2400 923	0.100000 Head
2401 908	0.100000 Head
2402 905	0.100000 Head
2404 927	0.100000 Head
2406 932	0.100000 Head
2408 940	0.100000 Head
2410 915	0.100000 Head
2412 910	0.100000 Head
2415 930	0.100000 Head
2419 916	0.100000 Head
2422 912	0.100000 Head
2426 950	0.100000 Head
2427 918	0.100000 Head
2428 910	0.100000 Head
2429 965	0.100000 Head
2431 972	0.100000 Head
2434 931	0.100000 Head
2437 948	0.100000 Head
2441 922	0.100000 Head
2442 953	0.100000 Head
2443 931	0.100000 Head
2445 920	0.100000 Head
2447 905	0.100000 Head
2449 910	0.100000 Head
2455 940	0.100000 Head
2459 962	0.100000 Head
2460 960	0.100000 Head
2461 918	0.100000 Head
2463 940	0.100000 Head
2465 926	0.100000 Head
2467 918	0.100000 Head
2468 930	0.100000 Head
2470 917	0.100000 Head
2471 941	0.100000 Head
2473 907	0.100000 Head
2474 910	0.100000 Head
2479 936	0.100000 Head
2488 950	0.100000 Head
2490 937	0.100000 Head
2491 938	0.100000 Head
2493 910	0.100000 Head
2502 987	0.100000 Head
2503 930	0.100000 Head
2504 935	0.100000 Head
2508 920	0.100000 Head
2509 925	0.100000 Head
2514 955	0.100000 Head
2515 953	0.100000 Head
2517 985	0.100000 Head
2518 932	0.100000 Head
2519 946	0.100000 Head
2520 906	0.100000 Head
2521 951	0.100000 Head
2522 953	0.100000 Head
2523 921	0.100000 Head
2524 930	0.100000 Head
2528 920	0.100000 Head
2529 940	0.100000 Head
2530 907	0.100000 Head
2534 909	0.100000 Head
2537 930	0.100000 Head
2540 933	0.100000 Head
2541 907	0.100000 Head
2542 912	0.100000 Head
2543 940	0.100000 Head
2544 910	0.100000 Head
2546 930	0.100000 Head
2547 951	0.100000 Head
2549 943	0.100000 Head
2551 956	0.100000 Head
2553 903	0.100000 Head
2554 910	0.100000 Head
2556 995	0.100000 Head
2558 910	0.100000 Head
2559 913	0.100000 Head
2560 930	0.100000 Head
2561 945	0.100000 Head
2562 937	0.100000 Head
2566 932	0.100000 Head
2567 920	0.100000 Head
2568 928	0.100000 Head
2569 932	0.100000 Head
2570 932	0.100000 Head
2571 934	0.100000 Head
2573 935	0.100000 Head
2574 905	0.100000 Head
2576 925	0.100000 Head
2577 938	0.100000 Head
2579 935	0.100000 Head
2580 908	0.100000 Head
2581 929	0.100000 Head
2582 914	0.100000 Head
2584 922	0.100000 Head
2586 990	0.100000 Head
2587 920	0.100000 Head
2588 934	0.100000 Head
2589 905	0.100000 Head
2591 925	0.100000 Head
2592 957	0.100000 Head
2594 908	0.100000 Head
2595 1000	0.100000 Head
2596 919	0.100000 Head
2597 939	0.100000 Head
2598 910	0.100000 Head
2599 933	0.100000 Head
2600 934	0.100000 Head
2601 911	0.100000 Head
2602 921	0.100000 Head
2603 910	0.100000 Head
2605 935	0.100000 Head
2606 930	0.100000 Head
2607 935	0.100000 Head
2609 932	0.100000 Head
2610 931	0.100000 Head
2611 928	0.100000 Head
2612 908	0.100000 Head
2613 928	0.100000 Head
2614 910	0.100000 Head
2621 930	0.100000 Head
2622 923	0.100000 Head
2624 915	0.100000 Head
2625 930	0.100000 Head
2626 918	0.100000 Head
2627 934	0.100000 Head
2628 935	0.100000 Head
2629 940	0.100000 Head
2631 945	0.100000 Head
2633 902	0.100000 Head
2634 925	0.100000 Head
2635 904	0.100000 Head
2636 923	0.100000 Head
2638 950	0.100000 Head
2639 904	0.100000 Head
2640 928	0.100000 Head
2641 930	0.100000 Head
2642 938	0.100000 Head
2644 920	0.100000 Head
2646 932	0.100000 Head
2648 933	0.100000 Head
2649 910	0.100000 Head
2652 910	0.100000 Head
2653 908	0.100000 Head
2656 933	0.100000 Head
2657 927	0.100000 Head
2658 925	0.100000 Head
2659 930	0.100000 Head
2660 930	0.100000 Head
2662 910	0.100000 Head
2663 918	0.100000 Head
2664 924	0.100000 Head
2665 913	0.100000 Head
2666 920	0.100000 Head
2667 928	0.100000 Head
2668 910	0.100000 Head
2670 911	0.100000 Head
2671 909	0.100000 Head
2672 956	0.100000 Head
2676 932	0.100000 Head
2677 925	0.100000 Head
2678 904	0.100000 Head
2679 930	0.100000 Head
2680 906	0.100000 Head
2682 938	0.100000 Head
2683 908	0.100000 Head
2684 964	0.100000 Head
2685 925	0.100000 Head
2686 931	0.100000 Head
2687 951	0.100000 Head
2688 961	0.100000 Head
2689 909	0.100000 Head
2690 911	0.100000 Head
2691 972	0.100000 Head
2692 905	0.100000 Head
2693 926	0.100000 Head
2695 905	0.100000 Head
2697 952	0.100000 Head
2699 904	0.100000 Head
2701 908	0.100000 Head
2703 940	0.100000 Head
2704 964	0.100000 Head
2705 924	0.100000 Head
2707 910	0.100000 Head
2708 926	0.100000 Head
2710 920	0.100000 Head
2711 910	0.100000 Head
2713 904	0.100000 Head
2714 913	0.100000 Head
2716 934	0.100000 Head
2717 906	0.100000 Head
2718 931	0.100000 Head
2720 961	0.100000 Head
2721 940	0.100000 Head
2722 931	0.100000 Head
2725 923	0.100000 Head
2726 950	0.100000 Head
2727 922	0.100000 Head
2728 932	0.100000 Head
2729 971	0.100000 Head
2730 905	0.100000 Head
2732 932	0.100000 Head
2733 920	0.100000 Head
2734 926	0.100000 Head
2735 945	0.100000 Head
2736 905	0.100000 Head
2737 920	0.100000 Head
2738 934	0.100000 Head
2739 940	0.100000 Head
2740 925	0.100000 Head
2742 930	0.100000 Head
2743 920	0.100000 Head
2744 904	0.100000 Head
2746 912	0.100000 Head
2747 959	0.100000 Head
2748 940	0.100000 Head
2749 960	0.100000 Head
2750 921	0.100000 Head
2751 925	0.100000 Head
2753 942	0.100000 Head
2754 935	0.100000 Head
2755 935	0.100000 Head
2756 912	0.100000 Head
2757 913	0.100000 Head
2759 922	0.100000 Head
2762 920	0.100000 Head
2763 918	0.100000 Head
2764 904	0.100000 Head
2765 910	0.100000 Head
2769 938	0.100000 Head
2771 920	0.100000 Head
2772 910	0.100000 Head
2773 906	0.100000 Head
2774 904	0.100000 Head
2775 918	0.100000 Head
2776 931	0.100000 Head
2777 980	0.100000 Head
2778 920	0.100000 Head
2779 911	0.100000 Head
2780 914	0.100000 Head
2781 906	0.100000 Head
2782 920	0.100000 Head
2783 953	0.100000 Head
2784 903	0.100000 Head
2785 904	0.100000 Head
2786 915	0.100000 Head
2787 932	0.100000 Head
2788 925	0.100000 Head
2789 915	0.100000 Head
2791 919	0.100000 Head
2792 920	0.100000 Head
2793 934	0.100000 Head
2794 911	0.100000 Head
2795 909	0.100000 Head
2796 908	0.100000 Head
2797 910	0.100000 Head
2801 908	0.100000 Head
2802 915	0.100000 Head
2805 902	0.100000 Head
2806 912	0.100000 Head
2807 912	0.100000 Head
2808 949	0.100000 Head
2809 921	0.100000 Head
2810 912	0.100000 Head
2812 954	0.100000 Head
2813 915	0.100000 Head
2814 938	0.100000 Head
2815 912	0.100000 Head
2816 905	0.100000 Head
2817 931	0.100000 Head
2820 908	0.100000 Head
2821 931	0.100000 Head
2823 915	0.100000 Head
2827 944	0.100000 Head
2829 941	0.100000 Head
2831 902	0.100000 Head
2832 929	0.100000 Head
2833 905	0.100000 Head
2834 905	0.100000 Head
2835 918	0.100000 Head
2836 928	0.100000 Head
2838 905	0.100000 Head
2892 916	0.100000 Head
2893 915	0.100000 Head
2894 912	0.100000 Head
2895 907	0.100000 Head
2896 909	0.100000 Head
2897 908	0.100000 Head
2898 913	0.100000 Head
2899 903	0.100000 Head
2900 906	0.100000 Head
2901 907	0.100000 Head
2902 911	0.100000 Head
2903 906	0.100000 Head
2904 913	0.100000 Head
2905 910	0.100000 Head
2906 911	0.100000 Head
2907 910	0.100000 Head
2908 909	0.100000 Head
2909 910	0.100000 Head
2910 920	0.100000 Head
2911 918	0.100000 Head
2912 920	0.100000 Head
2913 909	0.100000 Head
2914 911	0.100000 Head
2915 916	0.100000 Head
2916 913	0.100000 Head
2917 902	0.100000 Head
2918 912	0.100000 Head
2919 909	0.100000 Head
2920 922	0.100000 Head
2921 911	0.100000 Head
2922 913	0.100000 Head
2923 914	0.100000 Head
2924 905	0.100000 Head
2925 908	0.100000 Head
2926 911	0.100000 Head
2927 912	0.100000 Head
2928 913	0.100000 Head
2929 917	0.100000 Head
2930 920	0.100000 Head
2931 910	0.100000 Head
2932 900	0.100000 Head
2933 910	0.100000 Head
2934 913	0.100000 Head
2935 915	0.100000 Head
2936 903	0.100000 Head
2937 924	0.100000 Head
2938 911	0.100000 Head
2939 899	0.100000 Head
2940 912	0.100000 Head
2941 908	0.100000 Head
2942 910	0.100000 Head
2943 922	0.100000 Head
2944 905	0.100000 Head
2945 911	0.100000 Head
2946 910	0.100000 Head
2947 920	0.100000 Head
2948 912	0.100000 Head
2949 921	0.100000 Head
2950 920	0.100000 Head
2951 910	0.100000 Head
2952 908	0.100000 Head
2953 914	0.100000 Head
2954 910	0.100000 Head
2955 920	0.100000 Head
2956 900	0.100000 Head
2957 910	0.100000 Head
2958 911	0.100000 Head
2959 911	0.100000 Head
2960 917	0.100000 Head
2961 920	0.100000 Head
2962 905	0.100000 Head
2963 902	0.100000 Head
2964 905	0.100000 Head
2965 913	0.100000 Head
2966 918	0.100000 Head
2967 910	0.100000 Head
2968 911	0.100000 Head
2969 910	0.100000 Head
2970 912	0.100000 Head
2971 910	0.100000 Head
2972 922	0.100000 Head
2973 915	0.100000 Head
2974 911	0.100000 Head
2975 904	0.100000 Head
2976 910	0.100000 Head
2977 911	0.100000 Head
2978 912	0.100000 Head
2979 911	0.100000 Head
2980 916	0.100000 Head
2981 923	0.100000 Head
2982 900	0.100000 Head
2983 906	0.100000 Head
2984 923	0.100000 Head
2985 907	0.100000 Head
2986 913	0.100000 Head
2987 920	0.100000 Head
2988 914	0.100000 Head
2989 911	0.100000 Head
2990 910	0.100000 Head
2991 920	0.100000 Head
2992 912	0.100000 Head
2993 912	0.100000 Head
2994 915	0.100000 Head
2995 923	0.100000 Head
2996 920	0.100000 Head
2997 914	0.100000 Head
2998 912	0.100000 Head
2999 911	0.100000 Head
3000 923	0.100000 Head
3001 914	0.100000 Head
3002 912	0.100000 Head
3003 909	0.100000 Head
3004 911	0.100000 Head
3005 911	0.100000 Head
3006 905	0.100000 Head
3007 923	0.100000 Head
3008 920	0.100000 Head
3009 924	0.100000 Head
3010 915	0.100000 Head
3011 910	0.100000 Head
3012 898	0.100000 Head
3013 915	0.100000 Head
3014 915	0.100000 Head
3015 926	0.100000 Head
3016 930	0.100000 Head
3017 935	0.100000 Head
3018 927	0.100000 Head
3019 905	0.100000 Head
3020 913	0.100000 Head
3021 905	0.100000 Head
3022 913	0.100000 Head
3023 915	0.100000 Head
3024 912	0.100000 Head
3025 912	0.100000 Head
3026 905	0.100000 Head
3027 925	0.100000 Head
3028 911	0.100000 Head
3029 905	0.100000 Head
3030 905	0.100000 Head
3031 912	0.100000 Head
3032 918	0.100000 Head
3033 916	0.100000 Head
3034 915	0.100000 Head
3035 905	0.100000 Head
3036 912	0.100000 Head
3037 912	0.100000 Head
3038 915	0.100000 Head
3039 895	0.100000 Head
3040 915	0.100000 Head
3041 910	0.100000 Head
3042 915	0.100000 Head
3043 912	0.100000 Head
3044 916	0.100000 Head
3045 907	0.100000 Head
3046 905	0.100000 Head
3047 910	0.100000 Head
3048 909	0.100000 Head
3049 912	0.100000 Head
3050 913	0.100000 Head
3051 913	0.100000 Head
3052 925	0.100000 Head
3053 912	0.100000 Head
3054 910	0.100000 Head
3055 913	0.100000 Head
3056 914	0.100000 Head
3057 905	0.100000 Head
3058 905	0.100000 Head
3059 908	0.100000 Head
3060 912	0.100000 Head
3061 912	0.100000 Head
3062 911	0.100000 Head
3063 925	0.100000 Head
3064 905	0.100000 Head
3065 905	0.100000 Head
3066 910	0.100000 Head
3067 925	0.100000 Head
3068 900	0.100000 Head
3069 922	0.100000 Head
3070 910	0.100000 Head
3071 915	0.100000 Head
3072 915	0.100000 Head
3073 909	0.100000 Head
3074 910	0.100000 Head
3075 905	0.100000 Head
3076 915	0.100000 Head
3077 905	0.100000 Head
3078 905	0.100000 Head
3079 908	0.100000 Head
3080 915	0.100000 Head
3081 911	0.100000 Head
3082 914	0.100000 Head
3083 909	0.100000 Head
3084 910	0.100000 Head
3085 925	0.100000 Head
3086 900	0.100000 Head
3087 912	0.100000 Head
3088 898	0.100000 Head
3089 915	0.100000 Head
3090 935	0.100000 Head
3091 905	0.100000 Head
3092 902	0.100000 Head
3093 909	0.100000 Head
3094 913	0.100000 Head
3095 899	0.100000 Head
3096 905	0.100000 Head
3097 900	0.100000 Head
3098 912	0.100000 Head
3099 913	0.100000 Head
3100 912	0.100000 Head
3101 912	0.100000 Head
3102 925	0.100000 Head
3103 900	0.100000 Head
3104 913	0.100000 Head
3105 913	0.100000 Head
3106 911	0.100000 Head
3107 925	0.100000 Head
3108 916	0.100000 Head
3109 905	0.100000 Head
3110 906	0.100000 Head
3111 910	0.100000 Head
3112 907	0.100000 Head
3113 920	0.100000 Head
3114 915	0.100000 Head
3115 910	0.100000 Head
3116 905	0.100000 Head
3117 912	0.100000 Head
3118 912	0.100000 Head
3119 900	0.100000 Head
3120 910	0.100000 Head
3121 910	0.100000 Head
3122 915	0.100000 Head
3123 905	0.100000 Head
3124 910	0.100000 Head
3125 912	0.100000 Head
3126 912	0.100000 Head
3127 912	0.100000 Head
3128 908	0.100000 Head
3129 910	0.100000 Head
3130 925	0.100000 Head
3131 900	0.100000 Head
3132 915	0.100000 Head
3133 915	0.100000 Head
3134 914	0.100000 Head
3135 910	0.100000 Head
3136 918	0.100000 Head
3137 905	0.100000 Head
3138 910	0.100000 Head
3139 912	0.100000 Head
3140 910	0.100000 Head
3141 910	0.100000 Head
3142 915	0.100000 Head
3143 918	0.100000 Head
3144 920	0.100000 Head
3145 910	0.100000 Head
3146 910	0.100000 Head
3147 909	0.100000 Head
3148 905	0.100000 Head
3149 908	0.100000 Head
3150 918	0.100000 Head
3151 915	0.100000 Head
3152 898	0.100000 Head
3153 908	0.100000 Head
3154 915	0.100000 Head
3155 908	0.100000 Head
3156 905	0.100000 Head
3157 902	0.100000 Head
3158 908	0.100000 Head
3159 912	0.100000 Head
3160 915	0.100000 Head
3161 918	0.100000 Head
3162 915	0.100000 Head
3163 916	0.100000 Head
3164 912	0.100000 Head
3165 902	0.100000 Head
3166 898	0.100000 Head
3167 898	0.100000 Head
3168 918	0.100000 Head
3169 902	0.100000 Head
3170 905	0.100000 Head
3171 898	0.100000 Head
3172 912	0.100000 Head
3173 915	0.100000 Head
3174 908	0.100000 Head
3175 915	0.100000 Head
3176 908	0.100000 Head
3177 905	0.100000 Head
3178 895	0.100000 Head
3179 902	0.100000 Head
3180 902	0.100000 Head
3181 905	0.100000 Head
3182 918	0.100000 Head
3183 915	0.100000 Head
3184 908	0.100000 Head
3185 918	0.100000 Head
3186 918	0.100000 Head
3187 912	0.100000 Head
3188 915	0.100000 Head
3189 898	0.100000 Head
3190 912	0.100000 Head
3191 912	0.100000 Head
3192 915	0.100000 Head
3193 898	0.100000 Head
3194 915	0.100000 Head
3195 918	0.100000 Head
3196 905	0.100000 Head
3197 928	0.100000 Head
3198 908	0.100000 Head
3199 912	0.100000 Head
3200 908	0.100000 Head
3201 908	0.100000 Head
3202 915	0.100000 Head
3203 912	0.100000 Head
3204 915	0.100000 Head
3205 912	0.100000 Head
3206 905	0.100000 Head
3207 908	0.100000 Head
3208 912	0.100000 Head
3209 918	0.100000 Head
3210 915	0.100000 Head
3211 915	0.100000 Head
3212 905	0.100000 Head
3213 908	0.100000 Head
3214 898	0.100000 Head
3215 912	0.100000 Head
3216 902	0.100000 Head
3217 912	0.100000 Head
3218 902	0.100000 Head
3219 918	0.100000 Head
3220 905	0.100000 Head
3221 915	0.100000 Head
3222 912	0.100000 Head
3223 902	0.100000 Head
3224 908	0.100000 Head
3225 892	0.100000 Head
3226 905	0.100000 Head
3227 915	0.100000 Head
3228 908	0.100000 Head
3229 910	0.100000 Head
3230 916	0.100000 Head
3231 905.12	0.100000 Head
3232 910.35	0.100000 Head
3233 910.35	0.100000 Head
3234 909.53	0.100000 Head
3235 910.45	0.100000 Head
3236 910.21	0.100000 Head
3237 910.35	0.100000 Head
3238 910.35	0.100000 Head
3239 910.3	0.100000 Head
3241 908.14	0.100000 Head
3242 910.35	0.100000 Head
3243 910.35	0.100000 Head
3244 910.48	0.100000 Head
3245 917.03	0.100000 Head
3246 912.22	0.100000 Head
3249 911.52	0.100000 Head
3250 899.51	0.100000 Head
3251 913.87	0.100000 Head
3252 918.66	0.100000 Head
3253 903.93	0.100000 Head
3254 900.84	0.100000 Head
3255 914.61	0.100000 Head
3256 915.89	0.100000 Head
3257 920.54	0.100000 Head
3258 908.23	0.100000 Head
3259 909.47	0.100000 Head
3260 910.2	0.100000 Head
3261 897	0.100000 Head
3262 905.64	0.100000 Head
3264 927	0.100000 Head
3265 908.42	0.100000 Head
3267 908.97	0.100000 Head
3268 909.42	0.100000 Head
3269 910.01	0.100000 Head
3270 900.51	0.100000 Head
3271 918.41	0.100000 Head
3272 905.79	0.100000 Head
3275 899.65	0.100000 Head
3276 920.11	0.100000 Head
3277 931.27	0.100000 Head
3278 920.24	0.100000 Head
3279 930.51	0.100000 Head
3280 900.38	0.100000 Head
3281 930.08	0.100000 Head
3283 919.26	0.100000 Head
3284 905.69	0.100000 Head
3285 909.01	0.100000 Head
3286 902.85	0.100000 Head
3287 915.63	0.100000 Head
3288 922.17	0.100000 Head
3289 917.45	0.100000 Head
3290 918	0.100000 Head
3291 920.2	0.100000 Head
3292 900.74	0.100000 Head
3293 914.94	0.100000 Head
3294 895.76	0.100000 Head
3295 891.3	0.100000 Head
3296 897.09	0.100000 Head
3297 914.1	0.100000 Head
3298 919.5	0.100000 Head
3299 908.38	0.100000 Head
3300 909.78	0.100000 Head
3301 907.63	0.100000 Head
3302 892.73	0.100000 Head
3303 911.54	0.100000 Head
3304 917.34	0.100000 Head
3305 909.3	0.100000 Head
3306 913.81	0.100000 Head
3307 910.32	0.100000 Head
3308 910.44	0.100000 Head
3309 911.86	0.100000 Head
3310 911.53	0.100000 Head
3311 910.45	0.100000 Head
3312 909.57	0.100000 Head
3313 912.68	0.100000 Head
3314 903.87	0.100000 Head
3315 906.76	0.100000 Head
3316 911.98	0.100000 Head
3319 913.67	0.100000 Head
3322 909.72	0.100000 Head
3323 900.16	0.100000 Head
3324 910.32	0.100000 Head
3325 899.63	0.100000 Head
3326 891.3	0.100000 Head
3327 900.1	0.100000 Head
3328 910.7	0.100000 Head
3329 915.63	0.100000 Head
3330 908.51	0.100000 Head
3332 915.04	0.100000 Head
3334 909.88	0.100000 Head
3335 910.54	0.100000 Head
3336 910.82	0.100000 Head
3337 903.46	0.100000 Head
3338 901.33	0.100000 Head
3340 902.37	0.100000 Head
3481 894	0.100000 Head
3482 860	0.100000 Head
3483 869	0.100000 Head
3484 860	0.100000 Head
3485 906	0.100000 Head
3486 902	0.100000 Head
3487 910	0.100000 Head
3488 895	0.100000 Head
3489 911	0.100000 Head
3490 980	0.100000 Head
3491 914	0.100000 Head
3492 902	0.100000 Head
3493 915	0.100000 Head
3495 888	0.100000 Head
3496 890	0.100000 Head
3497 922	0.100000 Head
3498 915	0.100000 Head
3499 912	0.100000 Head
3500 910	0.100000 Head
3501 938	0.100000 Head
3503 917	0.100000 Head
3504 901	0.100000 Head
3506 922	0.100000 Head
3507 951	0.100000 Head
3508 919	0.100000 Head
3510 902	0.100000 Head
3512 903	0.100000 Head
3513 914	0.100000 Head
3514 882	0.100000 Head
3515 895	0.100000 Head
3516 912	0.100000 Head
3517 906	0.100000 Head
3518 915	0.100000 Head
3519 903	0.100000 Head
3521 902	0.100000 Head
3522 892	0.100000 Head
3523 950	0.100000 Head
3524 895	0.100000 Head
3525 885	0.100000 Head
3526 915	0.100000 Head
3527 908	0.100000 Head
3529 937	0.100000 Head
3531 891	0.100000 Head
3532 882	0.100000 Head
3533 829	0.100000 Head
3534 914	0.100000 Head
3535 930	0.100000 Head
3536 910	0.100000 Head
3537 918	0.100000 Head
3539 901	0.100000 Head
3541 910	0.100000 Head
3542 918	0.100000 Head
3543 895	0.100000 Head
3545 893	0.100000 Head
3546 885	0.100000 Head
3548 875	0.100000 Head
3551 937	0.100000 Head
3552 895	0.100000 Head
3553 901	0.100000 Head
3554 908	0.100000 Head
3555 874	0.100000 Head
3556 812	0.100000 Head
3557 918	0.100000 Head
3558 905	0.100000 Head
3560 916	0.100000 Head
3561 805	0.100000 Head
3562 904	0.100000 Head
3564 915	0.100000 Head
3565 841	0.100000 Head
3566 911	0.100000 Head
3567 921	0.100000 Head
3568 913	0.100000 Head
3569 960	0.100000 Head
3570 918	0.100000 Head
3571 914	0.100000 Head
3573 902	0.100000 Head
3575 920	0.100000 Head
3576 912	0.100000 Head
3577 911	0.100000 Head
3578 870	0.100000 Head
3579 914	0.100000 Head
3580 893	0.100000 Head
3581 911	0.100000 Head
3582 915	0.100000 Head
3583 930	0.100000 Head
3585 904	0.100000 Head
3587 860	0.100000 Head
3588 901	0.100000 Head
3589 931	0.100000 Head
3590 911	0.100000 Head
3591 911	0.100000 Head
3592 911	0.100000 Head
3593 920	0.100000 Head
3595 898	0.100000 Head
3596 917	0.100000 Head
3597 1000	0.100000 Head
3599 911	0.100000 Head
3601 836	0.100000 Head
3602 912	0.100000 Head
3603 890	0.100000 Head
3604 910	0.100000 Head
3605 908	0.100000 Head
3606 870	0.100000 Head
3607 902	0.100000 Head
3608 910	0.100000 Head
3609 924	0.100000 Head
3610 913	0.100000 Head
3611 915	0.100000 Head
3612 910	0.100000 Head
3615 881	0.100000 Head
3617 991	0.100000 Head
3618 930	0.100000 Head
3620 914	0.100000 Head
3621 922	0.100000 Head
3622 892	0.100000 Head
3623 927	0.100000 Head
3626 813	0.100000 Head
3627 927	0.100000 Head
3628 908	0.100000 Head
3630 875	0.100000 Head
3631 850	0.100000 Head
3632 850	0.100000 Head
3633 850	0.100000 Head
3634 855	0.100000 Head
3635 855	0.100000 Head
3636 855	0.100000 Head
3637 921	0.100000 Head
3638 940	0.100000 Head
3639 863	0.100000 Head
3640 895	0.100000 Head
3641 960	0.100000 Head
3642 915	0.100000 Head
3643 920	0.100000 Head
3644 921	0.100000 Head
3645 864	0.100000 Head
3647 925	0.100000 Head
3648 914	0.100000 Head
3650 908	0.100000 Head
3651 895	0.100000 Head
3652 910	0.100000 Head
3653 895	0.100000 Head
3654 902	0.100000 Head
3655 844	0.100000 Head
3659 912	0.100000 Head
3660 881	0.100000 Head
3661 907	0.100000 Head
3662 923	0.100000 Head
3663 921	0.100000 Head
3664 912	0.100000 Head
3666 918	0.100000 Head
3667 920	0.100000 Head
3668 930	0.100000 Head
3669 833	0.100000 Head
3672 910	0.100000 Head
3673 914	0.100000 Head
3674 824	0.100000 Head
3675 902	0.100000 Head
3676 875	0.100000 Head
3677 879	0.100000 Head
3678 921	0.100000 Head
3679 902	0.100000 Head
3680 924	0.100000 Head
3683 913	0.100000 Head
3686 922	0.100000 Head
3687 908	0.100000 Head
3688 908	0.100000 Head
3689 895	0.100000 Head
3690 962	0.100000 Head
3691 822	0.100000 Head
3692 913	0.100000 Head
3693 913	0.100000 Head
3694 895	0.100000 Head
3696 893	0.100000 Head
3697 908	0.100000 Head
3700 913	0.100000 Head
3701 909	0.100000 Head
3704 917	0.100000 Head
3705 923	0.100000 Head
3706 907	0.100000 Head
3707 925	0.100000 Head
3708 900	0.100000 Head
3709 902	0.100000 Head
3710 902	0.100000 Head
3713 844	0.100000 Head
3714 920	0.100000 Head
3715 912	0.100000 Head
3716 921	0.100000 Head
3717 910	0.100000 Head
3718 910	0.100000 Head
3719 910	0.100000 Head
3720 914	0.100000 Head
3721 911	0.100000 Head
3722 914	0.100000 Head
3723 914	0.100000 Head
3726 946	0.100000 Head
3727 907	0.100000 Head
3728 900	0.100000 Head
3729 885	0.100000 Head
3730 915	0.100000 Head
3731 870	0.100000 Head
3733 837	0.100000 Head
3734 924	0.100000 Head
3735 918	0.100000 Head
3736 913	0.100000 Head
3737 905	0.100000 Head
3738 892	0.100000 Head
3739 865	0.100000 Head
3740 915	0.100000 Head
3741 909	0.100000 Head
3742 916	0.100000 Head
3743 922	0.100000 Head
3744 905	0.100000 Head
3745 910	0.100000 Head
3746 925	0.100000 Head
3747 911	0.100000 Head
3748 881	0.100000 Head
3749 915	0.100000 Head
3750 904	0.100000 Head
3751 911	0.100000 Head
3752 839	0.100000 Head
3753 871	0.100000 Head
3754 994	0.100000 Head
3755 859	0.100000 Head
3756 861	0.100000 Head
3758 911	0.100000 Head