pcf
* control data
restart              estimation           
        19         69          1          0          1 
         1          1 single               point                         1          0          0 
              5               2             0.3            0.03         10 
              3               3           0.001               0 
            0.1 
        30            0.01          3          3            0.01          3 
         1          1          1 
* singular value decomposition
         1 
        19           1E-06 
         1 
* parameter groups
par                  relative                        0.01               0 switch                             2 parabolic            
* parameter data
vent_easti           fixed                factor                        645110           1E-10           1E+20 par                                1               0          1 
vent_north           fixed                factor                       2158088           1E-10           1E+20 par                                1               0          1 
vent_eleva           fixed                factor                          3850           1E-10           1E+20 par                                1               0          1 
plume_heig           log                  factor                         24774           1E-10           1E+20 par                                1               0          1 
alpha                log                  factor                             1           1E-10           1E+20 par                                1               0          1 
beta                 log                  factor                       0.84113           1E-10           1E+20 par                                1               0          1 
eruption_m           log                  factor                   1.16555E+12           1E-10     1.16555E+20 par                                1               0          1 
max_grains           fixed                factor                            13           1E-10           1E+20 par                                1             -20          1 
min_grains           fixed                factor                             7           1E-10           1E+20 par                                1               0          1 
median_gra           fixed                factor                       1.73607           1E-10           1E+20 par                                1               0          1 
std_grains           fixed                factor                      0.504273           1E-10           1E+20 par                                1               0          1 
eddy_const           fixed                factor                          0.04           1E-10           1E+20 par                                1               0          1 
diffusion_           fixed                factor                          3369           1E-10           1E+20 par                                1               0          1 
fall_time_           fixed                factor                          8440           1E-10           1E+20 par                                1               0          1 
lithic_den           fixed                factor                          2600           1E-10           1E+20 par                                1               0          1 
pumice_den           fixed                factor                          1000           1E-10           1E+20 par                                1               0          1 
col_steps            fixed                factor                            75           1E-10           1E+20 par                                1               0          1 
part_steps           fixed                factor                            75           1E-10           1E+20 par                                1               0          1 
plume_mode           fixed                factor                             2           1E-10           1E+20 par                                1               0          1 
* observation groups
obs                  
* observation data
obs_001                     119.7006               1 obs                  
obs_002                     162.9166               1 obs                  
obs_003                     157.1578               1 obs                  
obs_004                     241.3647               1 obs                  
obs_005                     205.6382               1 obs                  
obs_006                     131.1358               1 obs                  
obs_007                     159.6093               1 obs                  
obs_008                     142.6203               1 obs                  
obs_009                     99.80494               1 obs                  
obs_010                     197.1847               1 obs                  
obs_011                     186.2173               1 obs                  
obs_012                     129.7746               1 obs                  
obs_013                     119.3091               1 obs                  
obs_014                     85.86321               1 obs                  
obs_015                      316.796               1 obs                  
obs_016                     223.5694               1 obs                  
obs_017                     91.89367               1 obs                  
obs_018                     106.3284               1 obs                  
obs_019                     138.4195               1 obs                  
obs_020                     548.9811               1 obs                  
obs_021                     549.0602               1 obs                  
obs_022                      575.806               1 obs                  
obs_023                     570.6058               1 obs                  
obs_024                     201.6819               1 obs                  
obs_025                     388.7585               1 obs                  
obs_026                     395.7451               1 obs                  
obs_027                     361.2084               1 obs                  
obs_028                     269.3239               1 obs                  
obs_029                     293.5471               1 obs                  
obs_030                     242.3459               1 obs                  
obs_031                     251.5858               1 obs                  
obs_032                     267.7482               1 obs                  
obs_033                     190.5675               1 obs                  
obs_034                      158.699               1 obs                  
obs_035                     101.9367               1 obs                  
obs_036                     105.8125               1 obs                  
obs_037                     248.0622               1 obs                  
obs_038                     92.99812               1 obs                  
obs_039                     99.13899               1 obs                  
obs_040                     116.3098               1 obs                  
obs_041                     196.6723               1 obs                  
obs_042                     261.3294               1 obs                  
obs_043                     234.4215               1 obs                  
obs_044                     360.0067               1 obs                  
obs_045                     196.2702               1 obs                  
obs_046                 5.824332E-06               1 obs                  
obs_047                  0.000468994               1 obs                  
obs_048                 0.0002958656               1 obs                  
obs_049                  0.005913564               1 obs                  
obs_050                   0.07407258               1 obs                  
obs_051                   0.05080343               1 obs                  
obs_052                   0.06340974               1 obs                  
obs_053                     23.01779               1 obs                  
obs_054                     24.80755               1 obs                  
obs_055                   0.09578948               1 obs                  
obs_056                     361.7922               1 obs                  
obs_057                     6.809592               1 obs                  
obs_058                 0.0001581474               1 obs                  
obs_059                   0.04610484               1 obs                  
obs_060                 0.0006530078               1 obs                  
obs_061                   0.03969505               1 obs                  
obs_062                     17.09717               1 obs                  
obs_063                   0.01414344               1 obs                  
obs_064                   0.05356055               1 obs                  
obs_065                     5.347625               1 obs                  
obs_066                    0.1336507               1 obs                  
obs_067                    0.2565185               1 obs                  
obs_068                 2.900884E-05               1 obs                  
obs_069                   0.01622152               1 obs                  
* model command line
model.bat            
* model input/output
tephra2.tpl          tephra2.conf         
obs.ins              obs.dat              
