pcf
* control data
restart estimation
19  2914  5  0  8
3  3  single  point  1  0  0
1.000000e+001  2.000000e+000  3.000000e-001  1.000000e-002  7
1.000000e+001  1.000000e+001  1.000000e-003
1.000000e-001 noaui
0  1.000000e-002  3  3  1.000000e-002  3
1  1  1
* parameter groups
Kx     relative   1.000000e-002  0.000000e+000  always_3  2.000000e+000  parabolic
Kz     relative   1.000000e-002  0.000000e+000  always_3  2.000000e+000  parabolic
Rech   relative   1.000000e-002  0.000000e+000  always_3  2.000000e+000  parabolic
Hfb    relative   1.000000e-002  0.000000e+000  always_3  2.000000e+000  parabolic
Riv_cond relative 1.000000e-002  0.000000e+000  always_3  2.000000e+000  parabolic
* parameter data
kx1  log  factor    90.35145      1.000000e+001  4.000000e+002    kx   1.0   0.0 1
kx2  log  factor    10.86199      7.400000e+000  1.400000e+001    kx   1.0   0.0 1
kx3  fixed  factor    2.000000      1.000000e-001  1.000000e+001    kx   1.0   0.0 1
kx4  log  factor    6.941732      6.300000e+000  1.600000e+001    kx   1.0   0.0 1
kx10  log  factor    22.50149      5.900000e+000  6.700000e+001    kx   1.0   0.0 1
kxratio log factor    1.000000      1.000000e+000  1.000000e+001    kx   1.0   0.0 1
kzratio fixed factor   1.0000000E-02  1.000000e-002  1.000000e-001    kx   1.0   0.0 1
kz1  tied  factor   0.9035145      1.000000e-001  1.000000e+002    kz   1.0   0.0 1
kz2  tied  factor   0.1086199      1.000000e-001  1.000000e+001    kz   1.0   0.0 1
kz3  log  factor   8.7741140E-05  6.000000e-005  2.000000e-002    kz   1.0   0.0 1
kz4  tied  factor   6.9417324E-02  1.000000e-001  1.000000e+001    kz   1.0   0.0 1
kz10  fixed  factor   5.0000000E-03  3.000000e-004  2.000000e-002    kz  1.0  0.0 1
khflt log  factor   9.0580683E-02  5.600000e-003  2.800000e-001    kz  1.0  0.0 1
kvflt tied  factor   9.0580683E-02  5.600000e-003  2.800000e-001    kx  1.0  0.0 1
hf8001  fixed  factor   1.0000000E-05  1.000000e-07  1.000000e-003    hfb   1.0   0.0 1
hf8002  fixed  factor   1.0000000E-05  1.000000e-07  1.000000e-003    hfb   1.0   0.0 1
r1   none  factor    8.169538      5.0           11.0           rech 0.00022831  0.0 1
r2ratio   fixed  factor    1.000000      1.000000e-001  1.00000e+001  rech    1.0   0.0 1
condmult  fixed  factor    1.000000      1.000000e-001  4.00000e+001  riv_cond  1.0  0.0 1
Kz1 Kx1
Kz2 Kx2
Kz4 Kx4
kvflt khflt
* observation groups
Head9
Head10
Head50
Head-diff
Flux10
Flux20
Flux30
MB
* observation data
o1    915.0000    0.010000  Head50
o2    907.0000    0.010000  Head50
o3    925.0000    0.010000  Head50
o4    963.0000    0.010000  Head50
o5    910.0000    0.010000  Head50
o6    966.0000    0.010000  Head50
o7    931.0000    0.010000  Head50
o8    807.0000    0.010000  Head50
o9    874.0000    0.010000  Head50
o10    873.0000    0.010000  Head50
o11    883.0000    0.010000  Head50
o12    931.0000    0.010000  Head50
o13    830.0000    0.010000  Head50
o14    921.0000    0.010000  Head50
o15    877.0000    0.010000  Head50
o16    921.0000    0.010000  Head50
o17    904.0000    0.010000  Head50
o18    890.0000    0.010000  Head50
o19    955.0000    0.010000  Head50
o20    1000.0000    0.010000  Head50
o21    999.0000    0.010000  Head50
o22    1000.0000    0.010000  Head50
o23    1019.0000    0.010000  Head50
o24    1015.0000    0.010000  Head50
o25    958.0000    0.010000  Head50
o26    1010.0000    0.010000  Head50
o27    1080.0000    0.010000  Head50
o28    1058.0000    0.010000  Head50
o29    1082.0000    0.010000  Head50
o30    1047.0000    0.010000  Head50
o31    1079.0000    0.010000  Head50
o32    1086.0000    0.010000  Head50
o33    1084.0000    0.010000  Head50
o34    1095.0000    0.010000  Head50
o35    1111.0000    0.010000  Head50
o36    1107.0000    0.010000  Head50
o37    1105.0000    0.010000  Head50
o38    1071.0000    0.010000  Head50
o39    1071.0000    0.010000  Head50
o40    1110.0000    0.010000  Head50
o41    1135.0000    0.010000  Head50
o42    1107.0000    0.010000  Head50
o43    1110.0000    0.010000  Head50
o44    1003.0000    0.010000  Head50
o45    887.0000    0.010000  Head50
o46    902.0000    0.010000  Head50
o47    771.0000    0.010000  Head50
o48    843.0000    0.010000  Head50
o49    877.0000    0.010000  Head50
o50    825.0000    0.010000  Head50
o51    813.0000    0.010000  Head50
o52    873.0000    0.010000  Head50
o53    868.0000    0.010000  Head50
o54    886.0000    0.010000  Head50
o55    865.0000    0.010000  Head50
o56    945.0000    0.010000  Head50
o57    926.0000    0.010000  Head50
o58    811.0000    0.010000  Head50
o59    855.0000    0.010000  Head50
o60    885.0000    0.010000  Head50
o61    983.0000    0.010000  Head50
o62    869.0000    0.010000  Head50
o63    903.0000    0.010000  Head50
o64    914.0000    0.010000  Head50
o65    1107.0000    0.010000  Head50
o66    1072.0000    0.010000  Head50
o67    1056.0000    0.010000  Head50
o68    1040.0000    0.010000  Head50
o69    1060.0000    0.010000  Head50
o70    982.0000    0.010000  Head50
o71    974.0000    0.010000  Head50
o72    984.0000    0.010000  Head50
o73    967.0000    0.010000  Head50
o74    970.0000    0.010000  Head50
o75    1023.0000    0.010000  Head50
o76    1032.0000    0.010000  Head50
o77    1030.0000    0.010000  Head50
o78    980.0000    0.010000  Head50
o79    935.0000    0.010000  Head50
o80    940.0000    0.010000  Head50
o81    955.0000    0.010000  Head50
o82    958.0000    0.010000  Head50
o83    886.0000    0.010000  Head50
o84    919.0000    0.010000  Head50
o85    938.0000    0.010000  Head50
o86    979.0000    0.010000  Head50
o87    935.0000    0.010000  Head50
o88    932.0000    0.010000  Head50
o89    922.0000    0.010000  Head50
o90    951.0000    0.010000  Head50
o91    951.0000    0.010000  Head50
o92    1041.0000    0.010000  Head50
o93    1031.0000    0.010000  Head50
o94    1023.0000    0.010000  Head50
o95    961.0000    0.010000  Head50
o96    1015.0000    0.010000  Head50
o97    951.0000    0.010000  Head50
o98    986.0000    0.010000  Head50
o99    970.0000    0.010000  Head50
o100    945.0000    0.010000  Head50
o101    945.0000    0.010000  Head50
o102    1068.0000    0.010000  Head50
o103    1048.0000    0.010000  Head50
o104    1037.0000    0.010000  Head50
o105    1030.0000    0.010000  Head50
o106    1062.0000    0.010000  Head50
o107    1035.0000    0.010000  Head50
o108    1060.0000    0.010000  Head50
o109    1043.0000    0.010000  Head50
o110    1040.0000    0.010000  Head50
o111    1033.0000    0.010000  Head50
o112    987.0000    0.010000  Head50
o113    1020.0000    0.010000  Head50
o114    1020.0000    0.010000  Head50
o115    1008.0000    0.010000  Head50
o116    1019.0000    0.010000  Head50
o117    1030.0000    0.010000  Head50
o118    1030.0000    0.010000  Head50
o119    1046.0000    0.010000  Head50
o120    1031.0000    0.010000  Head50
o121    970.0000    0.010000  Head50
o122    1030.0000    0.010000  Head50
o123    966.0000    0.010000  Head50
o124    973.0000    0.010000  Head50
o125    976.0000    0.010000  Head50
o126    1005.0000    0.010000  Head50
o127    1013.0000    0.010000  Head50
o128    1011.0000    0.010000  Head50
o129    1036.0000    0.010000  Head50
o130    1031.0000    0.010000  Head50
o131    1038.0000    0.010000  Head50
o132    988.0000    0.010000  Head50
o133    1050.0000    0.010000  Head50
o134    931.0000    0.010000  Head50
o135    1022.0000    0.010000  Head50
o136    1021.0000    0.010000  Head50
o137    1076.0000    0.010000  Head50
o138    1068.0000    0.010000  Head50
o139    1083.0000    0.010000  Head50
o140    1104.0000    0.010000  Head50
o141    1114.0000    0.010000  Head50
o142    1120.0000    0.010000  Head50
o143    1128.0000    0.010000  Head50
o144    1123.0000    0.010000  Head50
o145    1138.0000    0.010000  Head50
o146    1143.0000    0.010000  Head50
o147    1135.0000    0.010000  Head50
o148    1130.0000    0.010000  Head50
o149    1105.0000    0.010000  Head50
o150    1113.0000    0.010000  Head50
o151    1106.0000    0.010000  Head50
o152    1120.0000    0.010000  Head50
o153    1112.0000    0.010000  Head50
o154    1063.0000    0.010000  Head50
o155    1058.0000    0.010000  Head50
o156    1065.0000    0.010000  Head50
o157    1059.0000    0.010000  Head50
o158    1062.0000    0.010000  Head50
o159    1069.0000    0.010000  Head50
o160    1058.0000    0.010000  Head50
o161    1112.0000    0.010000  Head50
o162    1070.0000    0.010000  Head50
o163    1046.0000    0.010000  Head50
o164    1056.0000    0.010000  Head50
o165    1026.0000    0.010000  Head50
o166    1064.0000    0.010000  Head50
o167    1102.0000    0.010000  Head50
o168    1055.0000    0.010000  Head50
o169    1114.0000    0.010000  Head50
o170    1115.0000    0.010000  Head50
o171    1064.0000    0.010000  Head50
o172    1126.0000    0.010000  Head50
o173    1135.0000    0.010000  Head50
o174    1131.0000    0.010000  Head50
o175    1149.0000    0.010000  Head50
o176    1140.0000    0.010000  Head50
o177    1145.0000    0.010000  Head50
o178    1135.0000    0.010000  Head50
o179    1132.0000    0.010000  Head50
o180    1168.0000    0.010000  Head50
o181    1178.0000    0.010000  Head50
o182    1180.0000    0.010000  Head50
o183    1140.0000    0.010000  Head50
o184    1160.0000    0.010000  Head50
o185    1155.0000    0.010000  Head50
o186    1166.0000    0.010000  Head50
o187    1177.0000    0.010000  Head50
o188    1164.0000    0.010000  Head50
o189    1141.0000    0.010000  Head50
o190    1176.0000    0.010000  Head50
o191    1100.0000    0.010000  Head50
o192    1111.0000    0.010000  Head50
o193    1162.0000    0.010000  Head50
o194    1160.0000    0.010000  Head50
o195    1175.0000    0.010000  Head50
o196    1136.0000    0.010000  Head50
o197    1142.0000    0.010000  Head50
o198    1132.0000    0.010000  Head50
o199    1138.0000    0.010000  Head50
o200    1137.0000    0.010000  Head50
o201    1165.0000    0.010000  Head50
o202    1245.0000    0.010000  Head50
o203    1171.0000    0.010000  Head50
o204    1075.0000    0.010000  Head50
o205    1150.0000    0.010000  Head50
o206    1185.0000    0.010000  Head50
o207    1201.0000    0.010000  Head50
o208    912.0000    0.010000  Head50
o209    1005.0000    0.010000  Head50
o210    922.0000    0.010000  Head50
o211    932.0000    0.010000  Head50
o212    1156.0000    0.010000  Head50
o213    1058.0000    0.010000  Head50
o214    1200.0000    0.010000  Head50
o215    1079.0000    0.010000  Head50
o216    1055.0000    0.010000  Head50
o217    1141.0000    0.010000  Head50
o218    1189.0000    0.010000  Head50
o219    1168.0000    0.010000  Head50
o220    1103.0000    0.010000  Head50
o221    1123.0000    0.010000  Head50
o222    1117.0000    0.010000  Head50
o223    1173.0000    0.010000  Head50
o224    1156.0000    0.010000  Head50
o225    1149.0000    0.010000  Head50
o226    1144.0000    0.010000  Head50
o227    1090.0000    0.010000  Head50
o228    1181.0000    0.010000  Head50
o229    1164.0000    0.010000  Head50
o230    1104.0000    0.010000  Head50
o231    1097.0000    0.010000  Head50
o232    1166.0000    0.010000  Head50
o233    1135.0000    0.010000  Head50
o234    1192.0000    0.010000  Head50
o235    1156.0000    0.010000  Head50
o236    1143.0000    0.010000  Head50
o237    1177.0000    0.010000  Head50
o238    1225.0000    0.010000  Head50
o239    1145.0000    0.010000  Head50
o240    1105.0000    0.010000  Head50
o241    1120.0000    0.010000  Head50
o242    1223.0000    0.010000  Head50
o243    1145.0000    0.010000  Head50
o244    1168.0000    0.010000  Head50
o245    1163.0000    0.010000  Head50
o246    1156.0000    0.010000  Head50
o247    1163.0000    0.010000  Head50
o248    1164.0000    0.010000  Head50
o249    1132.0000    0.010000  Head50
o250    1185.0000    0.010000  Head50
o251    1178.0000    0.010000  Head50
o252    1160.0000    0.010000  Head50
o253    1135.0000    0.010000  Head50
o254    1134.0000    0.010000  Head50
o255    1118.0000    0.010000  Head50
o256    1110.0000    0.010000  Head50
o257    1118.0000    0.010000  Head50
o258    1130.0000    0.010000  Head50
o259    1132.0000    0.010000  Head50
o260    1120.0000    0.010000  Head50
o261    1122.0000    0.010000  Head50
o262    1078.0000    0.010000  Head50
o263    1123.0000    0.010000  Head50
o264    1117.0000    0.010000  Head50
o265    1108.0000    0.010000  Head50
o266    1100.0000    0.010000  Head50
o267    1080.0000    0.010000  Head50
o268    1092.0000    0.010000  Head50
o269    1115.0000    0.010000  Head50
o270    1095.0000    0.010000  Head50
o271    1105.0000    0.010000  Head50
o272    1082.0000    0.010000  Head50
o273    1090.0000    0.010000  Head50
o274    1095.0000    0.010000  Head50
o275    1100.0000    0.010000  Head50
o276    1081.0000    0.010000  Head50
o277    1045.0000    0.010000  Head50
o278    1077.0000    0.010000  Head50
o279    1130.0000    0.010000  Head50
o280    1072.0000    0.010000  Head50
o281    1135.0000    0.010000  Head50
o282    1119.0000    0.010000  Head50
o283    1135.0000    0.010000  Head50
o284    1140.0000    0.010000  Head50
o285    1072.0000    0.010000  Head50
o286    1141.0000    0.010000  Head50
o287    1147.0000    0.010000  Head50
o288    1139.0000    0.010000  Head50
o289    1150.0000    0.010000  Head50
o290    1135.0000    0.010000  Head50
o291    1124.0000    0.010000  Head50
o292    1148.0000    0.010000  Head50
o293    1157.0000    0.010000  Head50
o294    1146.0000    0.010000  Head50
o295    1151.0000    0.010000  Head50
o296    1143.0000    0.010000  Head50
o297    1122.0000    0.010000  Head50
o298    1125.0000    0.010000  Head50
o299    1138.0000    0.010000  Head50
o300    1125.0000    0.010000  Head50
o301    1114.0000    0.010000  Head50
o302    1110.0000    0.010000  Head50
o303    1145.0000    0.010000  Head50
o304    1164.0000    0.010000  Head50
o305    1076.0000    0.010000  Head50
o306    1083.0000    0.010000  Head50
o307    1129.0000    0.010000  Head50
o308    1118.0000    0.010000  Head50
o309    1121.0000    0.010000  Head50
o310    1125.0000    0.010000  Head50
o311    1140.0000    0.010000  Head50
o312    1062.0000    0.010000  Head50
o313    1070.0000    0.010000  Head50
o314    1109.0000    0.010000  Head50
o315    1131.0000    0.010000  Head50
o316    1097.0000    0.010000  Head50
o317    1130.0000    0.010000  Head50
o318    1121.0000    0.010000  Head50
o319    1132.0000    0.010000  Head50
o320    1097.0000    0.010000  Head50
o321    1215.0000    0.010000  Head50
o322    1140.0000    0.010000  Head50
o323    1207.0000    0.010000  Head50
o324    1191.0000    0.010000  Head50
o325    1159.0000    0.010000  Head50
o326    1160.0000    0.010000  Head50
o327    1208.0000    0.010000  Head50
o328    1180.0000    0.010000  Head50
o329    1171.0000    0.010000  Head50
o330    1171.0000    0.010000  Head50
o331    1158.0000    0.010000  Head50
o332    1164.0000    0.010000  Head50
o333    1174.0000    0.010000  Head50
o334    1172.0000    0.010000  Head50
o335    1174.0000    0.010000  Head50
o336    1176.0000    0.010000  Head50
o337    1144.0000    0.010000  Head50
o338    1156.0000    0.010000  Head50
o339    1150.0000    0.010000  Head50
o340    1226.0000    0.010000  Head50
o341    1168.0000    0.010000  Head50
o342    1189.0000    0.010000  Head50
o343    1195.0000    0.010000  Head50
o344    1195.0000    0.010000  Head50
o345    1196.0000    0.010000  Head50
o346    1151.0000    0.010000  Head50
o347    1202.0000    0.010000  Head50
o348    1170.0000    0.010000  Head50
o349    786.0000    0.010000  Head50
o350    842.0000    0.010000  Head50
o351    827.0000    0.010000  Head50
o352    809.0000    0.010000  Head50
o353    832.0000    0.010000  Head50
o354    887.0000    0.010000  Head50
o355    955.0000    0.010000  Head50
o356    891.0000    0.010000  Head50
o357    867.0000    0.010000  Head50
o358    809.0000    0.010000  Head50
o359    864.0000    0.010000  Head50
o360    860.0000    0.010000  Head50
o361    885.0000    0.010000  Head50
o362    922.0000    0.010000  Head50
o363    799.0000    0.010000  Head50
o364    793.0000    0.010000  Head50
o365    1030.0000    0.010000  Head50
o366    885.0000    0.010000  Head50
o367    801.0000    0.010000  Head50
o368    818.0000    0.010000  Head50
o369    855.0000    0.010000  Head50
o370    890.0000    0.010000  Head50
o371    891.0000    0.010000  Head50
o372    912.0000    0.010000  Head50
o373    948.0000    0.010000  Head50
o374    981.0000    0.010000  Head50
o375    1063.0000    0.010000  Head50
o376    971.0000    0.010000  Head50
o377    966.0000    0.010000  Head50
o378    1115.0000    0.010000  Head50
o379    945.0000    0.010000  Head50
o380    1040.0000    0.010000  Head50
o381    1043.0000    0.010000  Head50
o382    1155.0000    0.010000  Head50
o383    934.0000    0.010000  Head50
o384    976.0000    0.010000  Head50
o385    1033.0000    0.010000  Head50
o386    1060.0000    0.010000  Head50
o387    1202.0000    0.010000  Head50
o388    999.0000    0.010000  Head50
o389    1191.0000    0.010000  Head50
o390    1245.0000    0.010000  Head50
o391    1098.0000    0.010000  Head50
o392    1219.0000    0.010000  Head50
o393    1231.0000    0.010000  Head50
o394    1085.0000    0.010000  Head50
o395    1281.0000    0.010000  Head50
o396    1219.0000    0.010000  Head50
o397    988.0000    0.010000  Head50
o398    1095.0000    0.010000  Head50
o399    1273.0000    0.010000  Head50
o400    1250.0000    0.010000  Head50
o401    1247.0000    0.010000  Head50
o402    1263.0000    0.010000  Head50
o403    1251.0000    0.010000  Head50
o404    1202.0000    0.010000  Head50
o405    1205.0000    0.010000  Head50
o406    1230.0000    0.010000  Head50
o407    1241.0000    0.010000  Head50
o408    1195.0000    0.010000  Head50
o409    1204.0000    0.010000  Head50
o410    1295.0000    0.010000  Head50
o411    1215.0000    0.010000  Head50
o412    1185.0000    0.010000  Head50
o413    1190.0000    0.010000  Head50
o414    1201.0000    0.010000  Head50
o415    1217.0000    0.010000  Head50
o416    1197.0000    0.010000  Head50
o417    1203.0000    0.010000  Head50
o418    1166.0000    0.010000  Head50
o419    1155.0000    0.010000  Head50
o420    1240.0000    0.010000  Head50
o421    1150.0000    0.010000  Head50
o422    1187.0000    0.010000  Head50
o423    1198.0000    0.010000  Head50
o424    1200.0000    0.010000  Head50
o425    1194.0000    0.010000  Head50
o426    1210.0000    0.010000  Head50
o427    1179.0000    0.010000  Head50
o428    1193.0000    0.010000  Head50
o429    1195.0000    0.010000  Head50
o430    1145.0000    0.010000  Head50
o431    1172.0000    0.010000  Head50
o432    1213.0000    0.010000  Head50
o433    1214.0000    0.010000  Head50
o434    1231.0000    0.010000  Head50
o435    1260.0000    0.010000  Head50
o436    1221.0000    0.010000  Head50
o437    1170.0000    0.010000  Head50
o438    1130.0000    0.010000  Head50
o439    1174.0000    0.010000  Head50
o440    1180.0000    0.010000  Head50
o441    1200.0000    0.010000  Head50
o442    1147.0000    0.010000  Head50
o443    1168.0000    0.010000  Head50
o444    1165.0000    0.010000  Head50
o445    1176.0000    0.010000  Head50
o446    1172.0000    0.010000  Head50
o447    1161.0000    0.010000  Head50
o448    1176.0000    0.010000  Head50
o449    1149.0000    0.010000  Head50
o450    1216.0000    0.010000  Head50
o451    1170.0000    0.010000  Head50
o452    1153.0000    0.010000  Head50
o453    1170.0000    0.010000  Head50
o454    1164.0000    0.010000  Head50
o455    1155.0000    0.010000  Head50
o456    1141.0000    0.010000  Head50
o457    1178.0000    0.010000  Head50
o458    1145.0000    0.010000  Head50
o459    1166.0000    0.010000  Head50
o460    1160.0000    0.010000  Head50
o461    1169.0000    0.010000  Head50
o462    1177.0000    0.010000  Head50
o463    1180.0000    0.010000  Head50
o464    1207.0000    0.010000  Head50
o465    1227.0000    0.010000  Head50
o466    1196.0000    0.010000  Head50
o467    1213.0000    0.010000  Head50
o468    1212.0000    0.010000  Head50
o469    1235.0000    0.010000  Head50
o470    1214.0000    0.010000  Head50
o471    1224.0000    0.010000  Head50
o472    1233.0000    0.010000  Head50
o473    1238.0000    0.010000  Head50
o474    1235.0000    0.010000  Head50
o475    1191.0000    0.010000  Head50
o476    1207.0000    0.010000  Head50
o477    1193.0000    0.010000  Head50
o478    1202.0000    0.010000  Head50
o479    1218.0000    0.010000  Head50
o480    1185.0000    0.010000  Head50
o481    1233.0000    0.010000  Head50
o482    1205.0000    0.010000  Head50
o483    1239.0000    0.010000  Head50
o484    1217.0000    0.010000  Head50
o485    1199.0000    0.010000  Head50
o486    1281.0000    0.010000  Head50
o487    1241.0000    0.010000  Head50
o488    1233.0000    0.010000  Head50
o489    1196.0000    0.010000  Head50
o490    1238.0000    0.010000  Head50
o491    1220.0000    0.010000  Head50
o492    890.0000    0.010000  Head50
o493    897.0000    0.010000  Head50
o494    961.0000    0.010000  Head50
o495    955.0000    0.010000  Head50
o496    974.0000    0.010000  Head50
o497    982.0000    0.010000  Head50
o498    971.0000    0.010000  Head50
o499    976.0000    0.010000  Head50
o500    1001.0000    0.010000  Head50
o501    1016.0000    0.010000  Head50
o502    991.0000    0.010000  Head50
o503    939.0000    0.010000  Head50
o504    948.0000    0.010000  Head50
o505    930.0000    0.010000  Head50
o506    1080.0000    0.010000  Head50
o507    1019.0000    0.010000  Head50
o508    924.0000    0.010000  Head50
o509    919.0000    0.010000  Head50
o510    932.0000    0.010000  Head50
o511    985.0000    0.010000  Head50
o512    1002.0000    0.010000  Head50
o513    995.0000    0.010000  Head50
o514    1053.0000    0.010000  Head50
o515    1061.0000    0.010000  Head50
o516    1085.0000    0.010000  Head50
o517    1030.0000    0.010000  Head50
o518    1023.0000    0.010000  Head50
o519    993.0000    0.010000  Head50
o520    1013.0000    0.010000  Head50
o521    984.0000    0.010000  Head50
o522    1120.0000    0.010000  Head50
o523    1138.0000    0.010000  Head50
o524    1171.0000    0.010000  Head50
o525    1153.0000    0.010000  Head50
o526    1227.0000    0.010000  Head50
o527    1145.0000    0.010000  Head50
o528    1249.0000    0.010000  Head50
o529    1154.0000    0.010000  Head50
o530    1112.0000    0.010000  Head50
o531    1068.0000    0.010000  Head50
o532    1002.0000    0.010000  Head50
o533    1199.0000    0.010000  Head50
o534    1265.0000    0.010000  Head50
o535    1185.0000    0.010000  Head50
o536    1095.0000    0.010000  Head50
o537    972.0000    0.010000  Head50
o538    1020.0000    0.010000  Head50
o539    1017.0000    0.010000  Head50
o540    1025.0000    0.010000  Head50
o541    1078.0000    0.010000  Head50
o542    982.0000    0.010000  Head50
o543    998.0000    0.010000  Head50
o544    1027.0000    0.010000  Head50
o545    1015.0000    0.010000  Head50
o546    1084.0000    0.010000  Head50
o547    1041.0000    0.010000  Head50
o548    1120.0000    0.010000  Head50
o549    1138.0000    0.010000  Head50
o550    1095.0000    0.010000  Head50
o551    1318.0000    0.010000  Head50
o552    1112.0000    0.010000  Head50
o553    1050.0000    0.010000  Head50
o554    1040.0000    0.010000  Head50
o555    1170.0000    0.010000  Head50
o556    1081.0000    0.010000  Head50
o557    1016.0000    0.010000  Head50
o558    1014.0000    0.010000  Head50
o559    1037.0000    0.010000  Head50
o560    1025.0000    0.010000  Head50
o561    1048.0000    0.010000  Head50
o562    1055.0000    0.010000  Head50
o563    1045.0000    0.010000  Head50
o564    1060.0000    0.010000  Head50
o565    1079.0000    0.010000  Head50
o566    1127.0000    0.010000  Head50
o567    1145.0000    0.010000  Head50
o568    1115.0000    0.010000  Head50
o569    1133.0000    0.010000  Head50
o570    1165.0000    0.010000  Head50
o571    1160.0000    0.010000  Head50
o572    1185.0000    0.010000  Head50
o573    1167.0000    0.010000  Head50
o574    1170.0000    0.010000  Head50
o575    1187.0000    0.010000  Head50
o576    1055.0000    0.010000  Head50
o577    1035.0000    0.010000  Head50
o578    1205.0000    0.010000  Head50
o579    1099.0000    0.010000  Head50
o580    1018.0000    0.010000  Head50
o581    1125.0000    0.010000  Head50
o582    875.0000    0.010000  Head50
o583    888.0000    0.010000  Head50
o584    926.0000    0.010000  Head50
o585    900.0000    0.010000  Head50
o586    903.0000    0.010000  Head50
o587    901.0000    0.010000  Head50
o588    935.0000    0.010000  Head50
o589    960.0000    0.010000  Head50
o590    938.0000    0.010000  Head50
o591    925.0000    0.010000  Head50
o592    946.0000    0.010000  Head50
o593    940.0000    0.010000  Head50
o594    919.0000    0.010000  Head50
o595    936.0000    0.010000  Head50
o596    959.0000    0.010000  Head50
o597    966.0000    0.010000  Head50
o598    1038.0000    0.010000  Head50
o599    1020.0000    0.010000  Head50
o600    1001.0000    0.010000  Head50
o601    1065.0000    0.010000  Head50
o602    1081.0000    0.010000  Head50
o603    1065.0000    0.010000  Head50
o604    1090.0000    0.010000  Head50
o605    1106.0000    0.010000  Head50
o606    1080.0000    0.010000  Head50
o607    1115.0000    0.010000  Head50
o608    832.0000    0.010000  Head50
o609    863.0000    0.010000  Head50
o610    805.0000    0.010000  Head50
o611    798.0000    0.010000  Head50
o612    864.0000    0.010000  Head50
o613    877.0000    0.010000  Head50
o614    818.0000    0.010000  Head50
o615    800.0000    0.010000  Head50
o616    847.0000    0.010000  Head50
o617    876.0000    0.010000  Head50
o618    887.0000    0.010000  Head50
o619    799.0000    0.010000  Head50
o620    798.0000    0.010000  Head50
o621    888.0000    0.010000  Head50
o622    880.0000    0.010000  Head50
o623    810.0000    0.010000  Head50
o624    909.0000    0.010000  Head50
o625    925.0000    0.010000  Head50
o626    910.0000    0.010000  Head50
o627    887.0000    0.010000  Head50
o628    879.0000    0.010000  Head50
o629    931.0000    0.010000  Head50
o630    1109.0000    0.010000  Head50
o631    1129.0000    0.010000  Head50
o632    1111.0000    0.010000  Head50
o633    1079.0000    0.010000  Head50
o634    1097.0000    0.010000  Head50
o635    1031.0000    0.010000  Head50
o636    913.0000    0.010000  Head50
o637    965.0000    0.010000  Head50
o638    952.0000    0.010000  Head50
o639    953.0000    0.010000  Head50
o640    997.0000    0.010000  Head50
o641    932.0000    0.010000  Head50
o642    941.0000    0.010000  Head50
o643    933.0000    0.010000  Head50
o644    923.0000    0.010000  Head50
o645    939.0000    0.010000  Head50
o646    958.0000    0.010000  Head50
o647    933.0000    0.010000  Head50
o648    920.0000    0.010000  Head50
o649    804.0000    0.010000  Head50
o650    932.0000    0.010000  Head50
o651    950.0000    0.010000  Head50
o652    962.0000    0.010000  Head50
o653    967.0000    0.010000  Head50
o654    955.0000    0.010000  Head50
o655    959.0000    0.010000  Head50
o656    932.0000    0.010000  Head50
o657    1027.0000    0.010000  Head50
o658    1040.0000    0.010000  Head50
o659    995.0000    0.010000  Head50
o660    1050.0000    0.010000  Head50
o661    1018.0000    0.010000  Head50
o662    1018.0000    0.010000  Head50
o663    1014.0000    0.010000  Head50
o664    1010.0000    0.010000  Head50
o665    1028.0000    0.010000  Head50
o666    1018.0000    0.010000  Head50
o667    1045.0000    0.010000  Head50
o668    1040.0000    0.010000  Head50
o669    1044.0000    0.010000  Head50
o670    1050.0000    0.010000  Head50
o671    1038.0000    0.010000  Head50
o672    1052.0000    0.010000  Head50
o673    1057.0000    0.010000  Head50
o674    989.0000    0.010000  Head50
o675    1002.0000    0.010000  Head50
o676    997.0000    0.010000  Head50
o677    1021.0000    0.010000  Head50
o678    1060.0000    0.010000  Head50
o679    1045.0000    0.010000  Head50
o680    1070.0000    0.010000  Head50
o681    1090.0000    0.010000  Head50
o682    1095.0000    0.010000  Head50
o683    1100.0000    0.010000  Head50
o684    1100.0000    0.010000  Head50
o685    1095.0000    0.010000  Head50
o686    1120.0000    0.010000  Head50
o687    1133.0000    0.010000  Head50
o688    1135.0000    0.010000  Head50
o689    1112.0000    0.010000  Head50
o690    1140.0000    0.010000  Head50
o691    1111.0000    0.010000  Head50
o692    1059.0000    0.010000  Head50
o693    1050.0000    0.010000  Head50
o694    1063.0000    0.010000  Head50
o695    1060.0000    0.010000  Head50
o696    1079.0000    0.010000  Head50
o697    1080.0000    0.010000  Head50
o698    1065.0000    0.010000  Head50
o699    1083.0000    0.010000  Head50
o700    1026.0000    0.010000  Head50
o701    1050.0000    0.010000  Head50
o702    1035.0000    0.010000  Head50
o703    1043.0000    0.010000  Head50
o704    1061.0000    0.010000  Head50
o705    1070.0000    0.010000  Head50
o706    1056.0000    0.010000  Head50
o707    1060.0000    0.010000  Head50
o708    1108.0000    0.010000  Head50
o709    1106.0000    0.010000  Head50
o710    1184.0000    0.010000  Head50
o711    1159.0000    0.010000  Head50
o712    1176.0000    0.010000  Head50