pcf
* control data
             restart      regularization
       600        75         1       600         2         0
         1         5              single               point         1         0         0            noobsref
   2.000000E+01  -3.000000E+00   3.000000E-01   1.000000E-02        -7       999          lamforgive        noderforgive
   1.000000E+01   1.000000E+01   1.000000E-03         0         0
   1.000000E-01         1   1.100000E+00               noaui          nosenreuse        noboundscale
        30   1.000000E-02         3         3   1.000000E-02         3   0.000000E+00         1  -1.000000E+00
         0         0         0         0             jcosave          verboserec          jcosaveitn          reisaveitn          parsaveitn        noparsaverun
* singular value decomposition
1
600    1.000000E-06
1 1 1
* parameter groups
               pargp              relative    1.000000E-02  0                switch    2.000000E+00             parabolic    1.000000E-05    5.000000E-01               smaller
* parameter data
kr01c01                   log                factor    1.000000E+00    1.100000E-10    1.100000E+10                 pargp    1.000000E+00    0.000000E+00          1
kr01c02                   log                factor    1.000000E+00    1.100000E-10    1.100000E+10                 pargp    1.000000E+00    0.000000E+00          1
kr01c03                   log                factor    1.000000E+00    1.100000E-10    1.100000E+10                 pargp    1.000000E+00    0.000000E+00          1
kr01c04                   log                factor    1.000000E+00    1.100000E-10    1.100000E+10                 pargp    1.000000E+00    0.000000E+00          1
kr01c05                   log                factor    1.000000E+00    1.100000E-10    1.100000E+10                 pargp    1.000000E+00    0.000000E+00          1
kr01c06                   log                factor    1.000000E+00    1.100000E-10    1.100000E+10                 pargp    1.000000E+00    0.000000E+00          1
kr01c07                   log                factor    1.000000E+00    1.100000E-10    1.100000E+10                 pargp    1.000000E+00    0.000000E+00          1
kr01c08                   log                factor    1.000000E+00    1.100000E-10    1.100000E+10                 pargp    1.000000E+00    0.000000E+00          1
kr01c09                   log                factor    1.000000E+00    1.100000E-10    1.100000E+10                 pargp    1.000000E+00    0.000000E+00          1
kr01c10                   log                factor    1.000000E+00    1.100000E-10    1.100000E+10                 pargp    1.000000E+00    0.000000E+00          1
kr01c11                   log                factor    1.000000E+00    1.100000E-10    1.100000E+10                 pargp    1.000000E+00    0.000000E+00          1
kr01c12                   log                factor    1.000000E+00    1.100000E-10    1.100000E+10                 pargp    1.000000E+00    0.000000E+00          1
kr01c13                   log                factor    1.000000E+00    1.100000E-10    1.100000E+10                 pargp    1.000000E+00    0.000000E+00          1
kr01c14                   log                factor    1.000000E+00    1.100000E-10    1.100000E+10                 pargp    1.000000E+00    0.000000E+00          1
kr01c15                   log                factor    1.000000E+00    1.100000E-10    1.100000E+10                 pargp    1.000000E+00    0.000000E+00          1
kr01c16                   log                factor    1.000000E+00    1.100000E-10    1.100000E+10                 pargp    1.000000E+00    0.000000E+00          1
kr01c17                   log                factor    1.000000E+00    1.100000E-10    1.100000E+10                 pargp    1.000000E+00    0.000000E+00          1
kr01c18                   log                factor    1.000000E+00    1.100000E-10    1.100000E+10                 pargp    1.000000E+00    0.000000E+00          1
kr01c19                   log                factor    1.000000E+00    1.100000E-10    1.100000E+10                 pargp    1.000000E+00    0.000000E+00          1
kr01c20                   log                factor    1.000000E+00    1.100000E-10    1.100000E+10                 pargp    1.000000E+00    0.000000E+00          1
kr01c21                   log                factor    1.000000E+00    1.100000E-10    1.100000E+10                 pargp    1.000000E+00    0.000000E+00          1
kr01c22                   log                factor    1.000000E+00    1.100000E-10    1.100000E+10                 pargp    1.000000E+00    0.000000E+00          1
kr01c23                   log                factor    1.000000E+00    1.100000E-10    1.100000E+10                 pargp    1.000000E+00    0.000000E+00          1
kr01c24                   log                factor    1.000000E+00    1.100000E-10    1.100000E+10                 pargp    1.000000E+00    0.000000E+00          1
kr01c25                   log                factor    1.000000E+00    1.100000E-10    1.100000E+10                 pargp    1.000000E+00    0.000000E+00          1
kr01c26                   log                factor    1.000000E+00    1.100000E-10    1.100000E+10                 pargp    1.000000E+00    0.000000E+00          1
kr01c27                   log                factor    1.000000E+00    1.100000E-10    1.100000E+10                 pargp    1.000000E+00    0.000000E+00          1
kr01c28                   log                factor    1.000000E+00    1.100000E-10    1.100000E+10                 pargp    1.000000E+00    0.000000E+00          1
kr01c29                   log                factor    1.000000E+00    1.100000E-10    1.100000E+10                 pargp    1.000000E+00    0.000000E+00          1
kr01c30                   log                factor    1.000000E+00    1.100000E-10    1.100000E+10                 pargp    1.000000E+00    0.000000E+00          1
kr01c31                   log                factor    1.000000E+00    1.100000E-10    1.100000E+10                 pargp    1.000000E+00    0.000000E+00          1
kr01c32                   log                factor    1.000000E+00    1.100000E-10    1.100000E+10                 pargp    1.000000E+00    0.000000E+00          1
kr01c33                   log                factor    1.000000E+00    1.100000E-10    1.100000E+10                 pargp    1.000000E+00    0.000000E+00          1
kr01c34                   log                factor    1.000000E+00    1.100000E-10    1.100000E+10                 pargp    1.000000E+00    0.000000E+00          1
kr01c35                   log                factor    1.000000E+00    1.100000E-10    1.100000E+10                 pargp    1.000000E+00    0.000000E+00          1
kr01c36                   log                factor    1.000000E+00    1.100000E-10    1.100000E+10                 pargp    1.000000E+00    0.000000E+00          1
kr01c37                   log                factor    1.000000E+00    1.100000E-10    1.100000E+10                 pargp    1.000000E+00    0.000000E+00          1
kr01c38                   log                factor    1.000000E+00    1.100000E-10    1.100000E+10                 pargp    1.000000E+00    0.000000E+00          1
kr01c39                   log                factor    1.000000E+00    1.100000E-10    1.100000E+10                 pargp    1.000000E+00    0.000000E+00          1
kr01c40                   log                factor    1.000000E+00    1.100000E-10    1.100000E+10                 pargp    1.000000E+00    0.000000E+00          1
kr01c41                   log                factor    1.000000E+00    1.100000E-10    1.100000E+10                 pargp    1.000000E+00    0.000000E+00          1
kr01c42                   log                factor    1.000000E+00    1.100000E-10    1.100000E+10                 pargp    1.000000E+00    0.000000E+00          1
kr01c43                   log                factor    1.000000E+00    1.100000E-10    1.100000E+10                 pargp    1.000000E+00    0.000000E+00          1
kr01c44                   log                factor    1.000000E+00    1.100000E-10    1.100000E+10                 pargp    1.000000E+00    0.000000E+00          1
kr01c45                   log                factor    1.000000E+00    1.100000E-10    1.100000E+10                 pargp    1.000000E+00    0.000000E+00          1
kr01c46                   log                factor    1.000000E+00    1.100000E-10    1.100000E+10                 pargp    1.000000E+00    0.000000E+00          1
kr01c47                   log                factor    1.000000E+00    1.100000E-10    1.100000E+10                 pargp    1.000000E+00    0.000000E+00          1
kr01c48                   log                factor    1.000000E+00    1.100000E-10    1.100000E+10                 pargp    1.000000E+00    0.000000E+00          1
kr01c49                   log                factor    1.000000E+00    1.100000E-10    1.100000E+10                 pargp    1.000000E+00    0.000000E+00          1
kr01c50                   log                factor    1.000000E+00    1.100000E-10    1.100000E+10                 pargp    1.000000E+00    0.000000E+00          1
kr01c51                   log                factor    1.000000E+00    1.100000E-10    1.100000E+10                 pargp    1.000000E+00    0.000000E+00          1
kr01c52                   log                factor    1.000000E+00    1.100000E-10    1.100000E+10                 pargp    1.000000E+00    0.000000E+00          1
kr01c53                   log                factor    1.000000E+00    1.100000E-10    1.100000E+10                 pargp    1.000000E+00    0.000000E+00          1
kr01c54                   log                factor    1.000000E+00    1.100000E-10    1.100000E+10                 pargp    1.000000E+00    0.000000E+00          1
kr01c55                   log                factor    1.000000E+00    1.100000E-10    1.100000E+10                 pargp    1.000000E+00    0.000000E+00          1
kr01c56                   log                factor    1.000000E+00    1.100000E-10    1.100000E+10                 pargp    1.000000E+00    0.000000E+00          1
kr01c57                   log                factor    1.000000E+00    1.100000E-10    1.100000E+10                 pargp    1.000000E+00    0.000000E+00          1
kr01c58                   log                factor    1.000000E+00    1.100000E-10    1.100000E+10                 pargp    1.000000E+00    0.000000E+00          1
kr01c59                   log                factor    1.000000E+00    1.100000E-10    1.100000E+10                 pargp    1.000000E+00    0.000000E+00          1
kr01c60                   log                factor    1.000000E+00    1.100000E-10    1.100000E+10                 pargp    1.000000E+00    0.000000E+00          1
kr02c01                   log                factor    1.000000E+00    1.100000E-10    1.100000E+10                 pargp    1.000000E+00    0.000000E+00          1
kr02c02                   log                factor    1.000000E+00    1.100000E-10    1.100000E+10                 pargp    1.000000E+00    0.000000E+00          1
kr02c03                   log                factor    1.000000E+00    1.100000E-10    1.100000E+10                 pargp    1.000000E+00    0.000000E+00          1
kr02c04                   log                factor    1.000000E+00    1.100000E-10    1.100000E+10                 pargp    1.000000E+00    0.000000E+00          1
kr02c05                   log                factor    1.000000E+00    1.100000E-10    1.100000E+10                 pargp    1.000000E+00    0.000000E+00          1
kr02c06                   log                factor    1.000000E+00    1.100000E-10    1.100000E+10                 pargp    1.000000E+00    0.000000E+00          1
kr02c07                   log                factor    1.000000E+00    1.100000E-10    1.100000E+10                 pargp    1.000000E+00    0.000000E+00          1
kr02c08                   log                factor    1.000000E+00    1.100000E-10    1.100000E+10                 pargp    1.000000E+00    0.000000E+00          1
kr02c09                   log                factor    1.000000E+00    1.100000E-10    1.100000E+10                 pargp    1.000000E+00    0.000000E+00          1
kr02c10                   log                factor    1.000000E+00    1.100000E-10    1.100000E+10                 pargp    1.000000E+00    0.000000E+00          1
kr02c11                   log                factor    1.000000E+00    1.100000E-10    1.100000E+10                 pargp    1.000000E+00    0.000000E+00          1
kr02c12                   log                factor    1.000000E+00    1.100000E-10    1.100000E+10                 pargp    1.000000E+00    0.000000E+00          1
kr02c13                   log                factor    1.000000E+00    1.100000E-10    1.100000E+10                 pargp    1.000000E+00    0.000000E+00          1
kr02c14                   log                factor    1.000000E+00    1.100000E-10    1.100000E+10                 pargp    1.000000E+00    0.000000E+00          1
kr02c15                   log                factor    1.000000E+00    1.100000E-10    1.100000E+10                 pargp    1.000000E+00    0.000000E+00          1
kr02c16                   log                factor    1.000000E+00    1.100000E-10    1.100000E+10                 pargp    1.000000E+00    0.000000E+00          1
kr02c17                   log                factor    1.000000E+00    1.100000E-10    1.100000E+10                 pargp    1.000000E+00    0.000000E+00          1
kr02c18                   log                factor    1.000000E+00    1.100000E-10    1.100000E+10                 pargp    1.000000E+00    0.000000E+00          1
kr02c19                   log                factor    1.000000E+00    1.100000E-10    1.100000E+10                 pargp    1.000000E+00    0.000000E+00          1
kr02c20                   log                factor    1.000000E+00    1.100000E-10    1.100000E+10                 pargp    1.000000E+00    0.000000E+00          1
kr02c21                   log                factor    1.000000E+00    1.100000E-10    1.100000E+10                 pargp    1.000000E+00    0.000000E+00          1
kr02c22                   log                factor    1.000000E+00    1.100000E-10    1.100000E+10                 pargp    1.000000E+00    0.000000E+00          1
kr02c23                   log                factor    1.000000E+00    1.100000E-10    1.100000E+10                 pargp    1.000000E+00    0.000000E+00          1
kr02c24                   log                factor    1.000000E+00    1.100000E-10    1.100000E+10                 pargp    1.000000E+00    0.000000E+00          1
kr02c25                   log                factor    1.000000E+00    1.100000E-10    1.100000E+10                 pargp    1.000000E+00    0.000000E+00          1
kr02c26                   log                factor    1.000000E+00    1.100000E-10    1.100000E+10                 pargp    1.000000E+00    0.000000E+00          1
kr02c27                   log                factor    1.000000E+00    1.100000E-10    1.100000E+10                 pargp    1.000000E+00    0.000000E+00          1
kr02c28                   log                factor    1.000000E+00    1.100000E-10    1.100000E+10                 pargp    1.000000E+00    0.000000E+00          1
kr02c29                   log                factor    1.000000E+00    1.100000E-10    1.100000E+10                 pargp    1.000000E+00    0.000000E+00          1
kr02c30                   log                factor    1.000000E+00    1.100000E-10    1.100000E+10                 pargp    1.000000E+00    0.000000E+00          1
kr02c31                   log                factor    1.000000E+00    1.100000E-10    1.100000E+10                 pargp    1.000000E+00    0.000000E+00          1
kr02c32                   log                factor    1.000000E+00    1.100000E-10    1.100000E+10                 pargp    1.000000E+00    0.000000E+00          1
kr02c33                   log                factor    1.000000E+00    1.100000E-10    1.100000E+10                 pargp    1.000000E+00    0.000000E+00          1
kr02c34                   log                factor    1.000000E+00    1.100000E-10    1.100000E+10                 pargp    1.000000E+00    0.000000E+00          1
kr02c35                   log                factor    1.000000E+00    1.100000E-10    1.100000E+10                 pargp    1.000000E+00    0.000000E+00          1
kr02c36                   log                factor    1.000000E+00    1.100000E-10    1.100000E+10                 pargp    1.000000E+00    0.000000E+00          1
kr02c37                   log                factor    1.000000E+00    1.100000E-10    1.100000E+10                 pargp    1.000000E+00    0.000000E+00          1
kr02c38                   log                factor    1.000000E+00    1.100000E-10    1.100000E+10                 pargp    1.000000E+00    0.000000E+00          1
kr02c39                   log                factor    1.000000E+00    1.100000E-10    1.100000E+10                 pargp    1.000000E+00    0.000000E+00          1
kr02c40                   log                factor    1.000000E+00    1.100000E-10    1.100000E+10                 pargp    1.000000E+00    0.000000E+00          1
kr02c41                   log                factor    1.000000E+00    1.100000E-10    1.100000E+10                 pargp    1.000000E+00    0.000000E+00          1
kr02c42                   log                factor    1.000000E+00    1.100000E-10    1.100000E+10                 pargp    1.000000E+00    0.000000E+00          1
kr02c43                   log                factor    1.000000E+00    1.100000E-10    1.100000E+10                 pargp    1.000000E+00    0.000000E+00          1
kr02c44                   log                factor    1.000000E+00    1.100000E-10    1.100000E+10                 pargp    1.000000E+00    0.000000E+00          1
kr02c45                   log                factor    1.000000E+00    1.100000E-10    1.100000E+10                 pargp    1.000000E+00    0.000000E+00          1
kr02c46                   log                factor    1.000000E+00    1.100000E-10    1.100000E+10                 pargp    1.000000E+00    0.000000E+00          1
kr02c47                   log                factor    1.000000E+00    1.100000E-10    1.100000E+10                 pargp    1.000000E+00    0.000000E+00          1
kr02c48                   log                factor    1.000000E+00    1.100000E-10    1.100000E+10                 pargp    1.000000E+00    0.000000E+00          1
kr02c49                   log                factor    1.000000E+00    1.100000E-10    1.100000E+10                 pargp    1.000000E+00    0.000000E+00          1
kr02c50                   log                factor    1.000000E+00    1.100000E-10    1.100000E+10                 pargp    1.000000E+00    0.000000E+00          1
kr02c51                   log                factor    1.000000E+00    1.100000E-10    1.100000E+10                 pargp    1.000000E+00    0.000000E+00          1
kr02c52                   log                factor    1.000000E+00    1.100000E-10    1.100000E+10                 pargp    1.000000E+00    0.000000E+00          1
kr02c53                   log                factor    1.000000E+00    1.100000E-10    1.100000E+10                 pargp    1.000000E+00    0.000000E+00          1
kr02c54                   log                factor    1.000000E+00    1.100000E-10    1.100000E+10                 pargp    1.000000E+00    0.000000E+00          1
kr02c55                   log                factor    1.000000E+00    1.100000E-10    1.100000E+10                 pargp    1.000000E+00    0.000000E+00          1
kr02c56                   log                factor    1.000000E+00    1.100000E-10    1.100000E+10                 pargp    1.000000E+00    0.000000E+00          1
kr02c57                   log                factor    1.000000E+00    1.100000E-10    1.100000E+10                 pargp    1.000000E+00    0.000000E+00          1
kr02c58                   log                factor    1.000000E+00    1.100000E-10    1.100000E+10                 pargp    1.000000E+00    0.000000E+00          1
kr02c59                   log                factor    1.000000E+00    1.100000E-10    1.100000E+10                 pargp    1.000000E+00    0.000000E+00          1
kr02c60                   log                factor    1.000000E+00    1.100000E-10    1.100000E+10                 pargp    1.000000E+00    0.000000E+00          1
kr03c01                   log                factor    1.000000E+00    1.100000E-10    1.100000E+10                 pargp    1.000000E+00    0.000000E+00          1
kr03c02                   log                factor    1.000000E+00    1.100000E-10    1.100000E+10                 pargp    1.000000E+00    0.000000E+00          1
kr03c03                   log                factor    1.000000E+00    1.100000E-10    1.100000E+10                 pargp    1.000000E+00    0.000000E+00          1
kr03c04                   log                factor    1.000000E+00    1.100000E-10    1.100000E+10                 pargp    1.000000E+00    0.000000E+00          1
kr03c05                   log                factor    1.000000E+00    1.100000E-10    1.100000E+10                 pargp    1.000000E+00    0.000000E+00          1
kr03c06                   log                factor    1.000000E+00    1.100000E-10    1.100000E+10                 pargp    1.000000E+00    0.000000E+00          1
kr03c07                   log                factor    1.000000E+00    1.100000E-10    1.100000E+10                 pargp    1.000000E+00    0.000000E+00          1
kr03c08                   log                factor    1.000000E+00    1.100000E-10    1.100000E+10                 pargp    1.000000E+00    0.000000E+00          1
kr03c09                   log                factor    1.000000E+00    1.100000E-10    1.100000E+10                 pargp    1.000000E+00    0.000000E+00          1
kr03c10                   log                factor    1.000000E+00    1.100000E-10    1.100000E+10                 pargp    1.000000E+00    0.000000E+00          1
kr03c11                   log                factor    1.000000E+00    1.100000E-10    1.100000E+10                 pargp    1.000000E+00    0.000000E+00          1
kr03c12                   log                factor    1.000000E+00    1.100000E-10    1.100000E+10                 pargp    1.000000E+00    0.000000E+00          1
kr03c13                   log                factor    1.000000E+00    1.100000E-10    1.100000E+10                 pargp    1.000000E+00    0.000000E+00          1
kr03c14                   log                factor    1.000000E+00    1.100000E-10    1.100000E+10                 pargp    1.000000E+00    0.000000E+00          1
kr03c15                   log                factor    1.000000E+00    1.100000E-10    1.100000E+10                 pargp    1.000000E+00    0.000000E+00          1
kr03c16                   log                factor    1.000000E+00    1.100000E-10    1.100000E+10                 pargp    1.000000E+00    0.000000E+00          1
kr03c17                   log                factor    1.000000E+00    1.100000E-10    1.100000E+10                 pargp    1.000000E+00    0.000000E+00          1
kr03c18                   log                factor    1.000000E+00    1.100000E-10    1.100000E+10                 pargp    1.000000E+00    0.000000E+00          1
kr03c19                   log                factor    1.000000E+00    1.100000E-10    1.100000E+10                 pargp    1.000000E+00    0.000000E+00          1
kr03c20                   log                factor    1.000000E+00    1.100000E-10    1.100000E+10                 pargp    1.000000E+00    0.000000E+00          1
kr03c21                   log                factor    1.000000E+00    1.100000E-10    1.100000E+10                 pargp    1.000000E+00    0.000000E+00          1
kr03c22                   log                factor    1.000000E+00    1.100000E-10    1.100000E+10                 pargp    1.000000E+00    0.000000E+00          1
kr03c23                   log                factor    1.000000E+00    1.100000E-10    1.100000E+10                 pargp    1.000000E+00    0.000000E+00          1
kr03c24                   log                factor    1.000000E+00    1.100000E-10    1.100000E+10                 pargp    1.000000E+00    0.000000E+00          1
kr03c25                   log                factor    1.000000E+00    1.100000E-10    1.100000E+10                 pargp    1.000000E+00    0.000000E+00          1
kr03c26                   log                factor    1.000000E+00    1.100000E-10    1.100000E+10                 pargp    1.000000E+00    0.000000E+00          1
kr03c27                   log                factor    1.000000E+00    1.100000E-10    1.100000E+10                 pargp    1.000000E+00    0.000000E+00          1
kr03c28                   log                factor    1.000000E+00    1.100000E-10    1.100000E+10                 pargp    1.000000E+00    0.000000E+00          1
kr03c29                   log                factor    1.000000E+00    1.100000E-10    1.100000E+10                 pargp    1.000000E+00    0.000000E+00          1
kr03c30                   log                factor    1.000000E+00    1.100000E-10    1.100000E+10                 pargp    1.000000E+00    0.000000E+00          1
kr03c31                   log                factor    1.000000E+00    1.100000E-10    1.100000E+10                 pargp    1.000000E+00    0.000000E+00          1
kr03c32                   log                factor    1.000000E+00    1.100000E-10    1.100000E+10                 pargp    1.000000E+00    0.000000E+00          1
kr03c33                   log                factor    1.000000E+00    1.100000E-10    1.100000E+10                 pargp    1.000000E+00    0.000000E+00          1
kr03c34                   log                factor    1.000000E+00    1.100000E-10    1.100000E+10                 pargp    1.000000E+00    0.000000E+00          1
kr03c35                   log                factor    1.000000E+00    1.100000E-10    1.100000E+10                 pargp    1.000000E+00    0.000000E+00          1
kr03c36                   log                factor    1.000000E+00    1.100000E-10    1.100000E+10                 pargp    1.000000E+00    0.000000E+00          1
kr03c37                   log                factor    1.000000E+00    1.100000E-10    1.100000E+10                 pargp    1.000000E+00    0.000000E+00          1
kr03c38                   log                factor    1.000000E+00    1.100000E-10    1.100000E+10                 pargp    1.000000E+00    0.000000E+00          1
kr03c39                   log                factor    1.000000E+00    1.100000E-10    1.100000E+10                 pargp    1.000000E+00    0.000000E+00          1
kr03c40                   log                factor    1.000000E+00    1.100000E-10    1.100000E+10                 pargp    1.000000E+00    0.000000E+00          1
kr03c41                   log                factor    1.000000E+00    1.100000E-10    1.100000E+10                 pargp    1.000000E+00    0.000000E+00          1
kr03c42                   log                factor    1.000000E+00    1.100000E-10    1.100000E+10                 pargp    1.000000E+00    0.000000E+00          1
kr03c43                   log                factor    1.000000E+00    1.100000E-10    1.100000E+10                 pargp    1.000000E+00    0.000000E+00          1
kr03c44                   log                factor    1.000000E+00    1.100000E-10    1.100000E+10                 pargp    1.000000E+00    0.000000E+00          1
kr03c45                   log                factor    1.000000E+00    1.100000E-10    1.100000E+10                 pargp    1.000000E+00    0.000000E+00          1
kr03c46                   log                factor    1.000000E+00    1.100000E-10    1.100000E+10                 pargp    1.000000E+00    0.000000E+00          1
kr03c47                   log                factor    1.000000E+00    1.100000E-10    1.100000E+10                 pargp    1.000000E+00    0.000000E+00          1
kr03c48                   log                factor    1.000000E+00    1.100000E-10    1.100000E+10                 pargp    1.000000E+00    0.000000E+00          1
kr03c49                   log                factor    1.000000E+00    1.100000E-10    1.100000E+10                 pargp    1.000000E+00    0.000000E+00          1
kr03c50                   log                factor    1.000000E+00    1.100000E-10    1.100000E+10                 pargp    1.000000E+00    0.000000E+00          1
kr03c51                   log                factor    1.000000E+00    1.100000E-10    1.100000E+10                 pargp    1.000000E+00    0.000000E+00          1
kr03c52                   log                factor    1.000000E+00    1.100000E-10    1.100000E+10                 pargp    1.000000E+00    0.000000E+00          1
kr03c53                   log                factor    1.000000E+00    1.100000E-10    1.100000E+10                 pargp    1.000000E+00    0.000000E+00          1
kr03c54                   log                factor    1.000000E+00    1.100000E-10    1.100000E+10                 pargp    1.000000E+00    0.000000E+00          1
kr03c55                   log                factor    1.000000E+00    1.100000E-10    1.100000E+10                 pargp    1.000000E+00    0.000000E+00          1