pcf
* control data
             restart          estimation
      2710      1224         4         0         9         0
         3         2              single               point         1         0         0          noobsreref
   2.000000E+01  -3.000000E+00   3.000000E-01   1.000000E-02       -10       999          lamforgive        noderforgive
   1.000000E+01   1.000000E+01   1.000000E-03         0         0
   1.000000E-01         1   1.100000E+00               noaui          nosenreuse        noboundscale
         0   1.000000E-02         3         3   1.000000E-02         3   0.000000E+00         1  -1.000000E+00
         0         0         0         0             jcosave          verboserec          jcosaveitn          reisaveitn          parsaveitn        noparsaverun
* singular value decomposition
1
1715  5.000000e-007
1
* parameter groups
kz                      relative              1.0000000000E-02       0.0  always_3              2.0000000000E+00       parabolic             1.0000000000E-05      5.0000000000E-01       smaller              
kp                      relative              1.0000000000E-02       0.0  always_3              2.0000000000E+00       parabolic             1.0000000000E-05      5.0000000000E-01       smaller              
rech                    relative              1.0000000000E-02       0.0  always_3              2.0000000000E+00       parabolic             1.0000000000E-05      5.0000000000E-01       smaller              
cond                    relative              1.0000000000E-02       0.0  always_3              2.0000000000E+00       parabolic             1.0000000000E-05      5.0000000000E-01       smaller
* parameter data
sfrc                   log                    factor                4.6422210683E-04      1.0000000000E-10      1.0000000000E+10       cond                  1.0000000000E+00      0.0000000000E+00      1          
ghbc                   log                    factor                8.3884620778E-09      1.0000000000E-10      1.0000000000E+10       cond                  1.0000000000E+00      0.0000000000E+00      1          
ratio_sgab             fixed                  factor                1.0000000000E+00      1.0000000000E+00      1.0000000000E+10       rech                  1.0000000000E+00      0.0000000000E+00      1          
ratio_sgbc             fixed                  factor                1.0000000000E+00      7.0000000000E-01      1.0000000000E+10       rech                  1.0000000000E+00      0.0000000000E+00      1          
ratio_sgcd             fixed                  factor                1.0000000000E+00      1.0000000000E+00      1.0000000000E+10       rech                  1.0000000000E+00      0.0000000000E+00      1          
rch_mult_sgd           log                    factor                3.5783600800E+01      1.0000000000E-10      1.0000000000E+10       rech                  1.0000000000E+00      0.0000000000E+00      1          
kpkp89_mc1             log                    factor                1.7514627226E+00      1.0000000000E-10      1.0000000000E+02       kp                    1.0000000000E+00      0.0000000000E+00      1          
kpkp90_mc1             log                    factor                1.3426268735E+01      1.0000000000E-10      1.0000000000E+02       kp                    1.0000000000E+00      0.0000000000E+00      1          
kpkp106_mc1            log                    factor                2.5503469454E+01      1.0000000000E-10      1.0000000000E+02       kp                    1.0000000000E+00      0.0000000000E+00      1          
kpkp107_mc1            log                    factor                5.0665342722E-07      1.0000000000E-10      1.0000000000E+02       kp                    1.0000000000E+00      0.0000000000E+00      1          
kpkp108_mc1            log                    factor                7.9517430006E+00      1.0000000000E-10      1.0000000000E+02       kp                    1.0000000000E+00      0.0000000000E+00      1          
kpkp122_mc1            log                    factor                2.4002877042E+00      1.0000000000E-10      1.0000000000E+02       kp                    1.0000000000E+00      0.0000000000E+00      1          
kpkp123_mc1            log                    factor                8.9608409240E-04      1.0000000000E-10      1.0000000000E+02       kp                    1.0000000000E+00      0.0000000000E+00      1          
kpkp124_mc1            log                    factor                5.3424752601E-07      1.0000000000E-10      1.0000000000E+02       kp                    1.0000000000E+00      0.0000000000E+00      1          
kpkp125_mc1            log                    factor                6.5881415920E-04      1.0000000000E-10      1.0000000000E+02       kp                    1.0000000000E+00      0.0000000000E+00      1          
kpkp126_mc1            log                    factor                2.1708230310E-05      1.0000000000E-10      1.0000000000E+02       kp                    1.0000000000E+00      0.0000000000E+00      1          
kpkp139_mc1            log                    factor                7.5135775663E-02      1.0000000000E-10      1.0000000000E+02       kp                    1.0000000000E+00      0.0000000000E+00      1          
kpkp140_bh1            log                    factor                5.3777608935E+00      1.0000000000E-10      1.0000000000E+02       kp                    1.0000000000E+00      0.0000000000E+00      1          
kpkp141_mc1            log                    factor                1.8207157220E+00      1.0000000000E-10      1.0000000000E+02       kp                    1.0000000000E+00      0.0000000000E+00      1          
kpkp142_mc1            log                    factor                1.0000000000E+02      1.0000000000E-10      1.0000000000E+02       kp                    1.0000000000E+00      0.0000000000E+00      1          
kpkp143_br1            log                    factor                1.0625020610E+01      1.0000000000E-10      1.0000000000E+02       kp                    1.0000000000E+00      0.0000000000E+00      1          
kpkp144_br1            log                    factor                2.5921646083E-02      1.0000000000E-10      1.0000000000E+02       kp                    1.0000000000E+00      0.0000000000E+00      1          
kpkp156_mc1            log                    factor                3.5787136632E+01      1.0000000000E-10      1.0000000000E+02       kp                    1.0000000000E+00      0.0000000000E+00      1          
kpkp157_mc1            log                    factor                2.0698102313E-01      1.0000000000E-10      1.0000000000E+02       kp                    1.0000000000E+00      0.0000000000E+00      1          
kpkp158_tn1            log                    factor                5.4070176470E-04      1.0000000000E-10      1.0000000000E+02       kp                    1.0000000000E+00      0.0000000000E+00      1          
kpkp159_br1            log                    factor                4.6022389901E-03      1.0000000000E-10      1.0000000000E+02       kp                    1.0000000000E+00      0.0000000000E+00      1          
kpkp160_br1            log                    factor                6.6176991747E-03      1.0000000000E-10      1.0000000000E+02       kp                    1.0000000000E+00      0.0000000000E+00      1          
kpkp161_br1            log                    factor                1.0000000000E+02      1.0000000000E-10      1.0000000000E+02       kp                    1.0000000000E+00      0.0000000000E+00      1          
kpkp173_mc1            log                    factor                1.0000000000E+02      1.0000000000E-10      1.0000000000E+02       kp                    1.0000000000E+00      0.0000000000E+00      1          
kpkp174_mc1            log                    factor                6.7161142003E-05      1.0000000000E-10      1.0000000000E+02       kp                    1.0000000000E+00      0.0000000000E+00      1          
kpkp175_tn1            log                    factor                2.0570456903E+01      1.0000000000E-10      1.0000000000E+02       kp                    1.0000000000E+00      0.0000000000E+00      1          
kpkp176_br1            log                    factor                1.0539734532E-05      1.0000000000E-10      1.0000000000E+02       kp                    1.0000000000E+00      0.0000000000E+00      1          
kpkp177_br1            log                    factor                2.7822361929E-02      1.0000000000E-10      1.0000000000E+02       kp                    1.0000000000E+00      0.0000000000E+00      1          
kpkp191_mc1            log                    factor                1.4739974633E+01      1.0000000000E-10      1.0000000000E+02       kp                    1.0000000000E+00      0.0000000000E+00      1          
kpkp192_tn1            log                    factor                1.0000000000E+02      1.0000000000E-10      1.0000000000E+02       kp                    1.0000000000E+00      0.0000000000E+00      1          
kpkp193_br1            log                    factor                4.4405841088E+01      1.0000000000E-10      1.0000000000E+02       kp                    1.0000000000E+00      0.0000000000E+00      1          
kpkp202_ts1            log                    factor                1.0000000000E+02      1.0000000000E-10      1.0000000000E+02       kp                    1.0000000000E+00      0.0000000000E+00      1          
kpkp203_mc1            log                    factor                1.0000000000E+02      1.0000000000E-10      1.0000000000E+02       kp                    1.0000000000E+00      0.0000000000E+00      1          
kpkp204_br1            log                    factor                1.0000000000E+02      1.0000000000E-10      1.0000000000E+02       kp                    1.0000000000E+00      0.0000000000E+00      1          
kpkp205_mc1            log                    factor                4.4867526232E-02      1.0000000000E-10      1.0000000000E+02       kp                    1.0000000000E+00      0.0000000000E+00      1          
kpkp206_mc1            log                    factor                3.5931568039E-08      1.0000000000E-10      1.0000000000E+02       kp                    1.0000000000E+00      0.0000000000E+00      1          
kpkp207_mc1            log                    factor                1.0000000000E+02      1.0000000000E-10      1.0000000000E+02       kp                    1.0000000000E+00      0.0000000000E+00      1          
kpkp208_tn1            log                    factor                1.0000000000E+02      1.0000000000E-10      1.0000000000E+02       kp                    1.0000000000E+00      0.0000000000E+00      1          
kpkp209_ks1            log                    factor                8.8542028983E-01      1.0000000000E-10      1.0000000000E+02       kp                    1.0000000000E+00      0.0000000000E+00      1          
kpkp217_ts1            log                    factor                1.0000000000E+02      1.0000000000E-10      1.0000000000E+02       kp                    1.0000000000E+00      0.0000000000E+00      1          
kpkp218_ts1            log                    factor                5.6529818429E-03      1.0000000000E-10      1.0000000000E+02       kp                    1.0000000000E+00      0.0000000000E+00      1          
kpkp219_ts1            log                    factor                1.0000000000E+02      1.0000000000E-10      1.0000000000E+02       kp                    1.0000000000E+00      0.0000000000E+00      1          
kpkp220_br1            log                    factor                1.0000000000E+02      1.0000000000E-10      1.0000000000E+02       kp                    1.0000000000E+00      0.0000000000E+00      1          
kpkp221_br1            log                    factor                1.8743684094E-02      1.0000000000E-10      1.0000000000E+02       kp                    1.0000000000E+00      0.0000000000E+00      1          
kpkp222_br1            log                    factor                4.4545693110E-04      1.0000000000E-10      1.0000000000E+02       kp                    1.0000000000E+00      0.0000000000E+00      1          
kpkp223_br1            log                    factor                9.3948221556E+01      1.0000000000E-10      1.0000000000E+02       kp                    1.0000000000E+00      0.0000000000E+00      1          
kpkp224_ks1            log                    factor                1.0000000000E+02      1.0000000000E-10      1.0000000000E+02       kp                    1.0000000000E+00      0.0000000000E+00      1          
kpkp225_ks1            log                    factor                5.7507052520E-03      1.0000000000E-10      1.0000000000E+02       kp                    1.0000000000E+00      0.0000000000E+00      1          
kpkp235_br1            log                    factor                5.5863690597E-03      1.0000000000E-10      1.0000000000E+02       kp                    1.0000000000E+00      0.0000000000E+00      1          
kpkp236_ts1            log                    factor                1.5838349788E+00      1.0000000000E-10      1.0000000000E+02       kp                    1.0000000000E+00      0.0000000000E+00      1          
kpkp237_br1            log                    factor                1.0000000000E+02      1.0000000000E-10      1.0000000000E+02       kp                    1.0000000000E+00      0.0000000000E+00      1          
kpkp238_br1            log                    factor                1.5359059737E+01      1.0000000000E-10      1.0000000000E+02       kp                    1.0000000000E+00      0.0000000000E+00      1          
kpkp239_br1            log                    factor                1.0000000000E+02      1.0000000000E-10      1.0000000000E+02       kp                    1.0000000000E+00      0.0000000000E+00      1          
kpkp240_br1            log                    factor                3.1803249760E+01      1.0000000000E-10      1.0000000000E+02       kp                    1.0000000000E+00      0.0000000000E+00      1          
kpkp253_br1            log                    factor                1.7052040679E+01      1.0000000000E-10      1.0000000000E+02       kp                    1.0000000000E+00      0.0000000000E+00      1          
kpkp255_br1            log                    factor                1.0000000000E+02      1.0000000000E-10      1.0000000000E+02       kp                    1.0000000000E+00      0.0000000000E+00      1          
kpkp256_br1            log                    factor                2.7126389137E+01      1.0000000000E-10      1.0000000000E+02       kp                    1.0000000000E+00      0.0000000000E+00      1          
kpkp162_br1            log                    factor                3.3833703636E+01      1.0000000000E-10      1.0000000000E+02       kp                    1.0000000000E+00      0.0000000000E+00      1          
kpkp178_br1            log                    factor                2.8729672245E+01      1.0000000000E-10      1.0000000000E+02       kp                    1.0000000000E+00      0.0000000000E+00      1          
kpkp179_br1            log                    factor                6.4381532682E+01      1.0000000000E-10      1.0000000000E+02       kp                    1.0000000000E+00      0.0000000000E+00      1          
kpkp194_br1            log                    factor                2.2972654715E-03      1.0000000000E-10      1.0000000000E+02       kp                    1.0000000000E+00      0.0000000000E+00      1          
kpkp195_br1            log                    factor                1.0000000000E+02      1.0000000000E-10      1.0000000000E+02       kp                    1.0000000000E+00      0.0000000000E+00      1          
kpkp196_br1            log                    factor                5.1944569487E-02      1.0000000000E-10      1.0000000000E+02       kp                    1.0000000000E+00      0.0000000000E+00      1          
kpkp210_br1            log                    factor                2.6369013989E-01      1.0000000000E-10      1.0000000000E+02       kp                    1.0000000000E+00      0.0000000000E+00      1          
kpkp211_br1            log                    factor                6.5441758460E+01      1.0000000000E-10      1.0000000000E+02       kp                    1.0000000000E+00      0.0000000000E+00      1          
kpkp212_br1            log                    factor                9.0831302945E+00      1.0000000000E-10      1.0000000000E+02       kp                    1.0000000000E+00      0.0000000000E+00      1          
kpkp226_br1            log                    factor                4.7769689856E-05      1.0000000000E-10      1.0000000000E+02       kp                    1.0000000000E+00      0.0000000000E+00      1          
kpkp227_br1            log                    factor                1.0000000000E+02      1.0000000000E-10      1.0000000000E+02       kp                    1.0000000000E+00      0.0000000000E+00      1          
kpkp228_br1            log                    factor                3.7798724341E-01      1.0000000000E-10      1.0000000000E+02       kp                    1.0000000000E+00      0.0000000000E+00      1          
kpkp241_br1            log                    factor                3.4085748026E-05      1.0000000000E-10      1.0000000000E+02       kp                    1.0000000000E+00      0.0000000000E+00      1          
kpkp242_br1            log                    factor                6.1153986047E-02      1.0000000000E-10      1.0000000000E+02       kp                    1.0000000000E+00      0.0000000000E+00      1          
kpkp243_br1            log                    factor                1.0000000000E+02      1.0000000000E-10      1.0000000000E+02       kp                    1.0000000000E+00      0.0000000000E+00      1          
kpkp180_br1            log                    factor                8.0320123710E-05      1.0000000000E-10      1.0000000000E+02       kp                    1.0000000000E+00      0.0000000000E+00      1          
kpkp197_br1            log                    factor                6.7770919749E+00      1.0000000000E-10      1.0000000000E+02       kp                    1.0000000000E+00      0.0000000000E+00      1          
kpkp198_br1            log                    factor                1.0000000000E+02      1.0000000000E-10      1.0000000000E+02       kp                    1.0000000000E+00      0.0000000000E+00      1          
kpkp213_br1            log                    factor                2.3717323447E-02      1.0000000000E-10      1.0000000000E+02       kp                    1.0000000000E+00      0.0000000000E+00      1          
kpkp214_br1            log                    factor                1.2925464825E+00      1.0000000000E-10      1.0000000000E+02       kp                    1.0000000000E+00      0.0000000000E+00      1          
kpkp215_br1            log                    factor                1.3807940595E-02      1.0000000000E-10      1.0000000000E+02       kp                    1.0000000000E+00      0.0000000000E+00      1          
kpkp216_ts1            log                    factor                1.1926985567E-01      1.0000000000E-10      1.0000000000E+02       kp                    1.0000000000E+00      0.0000000000E+00      1          
kpkp229_br1            log                    factor                2.4315593965E+01      1.0000000000E-10      1.0000000000E+02       kp                    1.0000000000E+00      0.0000000000E+00      1          
kpkp230_br1            log                    factor                1.0000000000E+02      1.0000000000E-10      1.0000000000E+02       kp                    1.0000000000E+00      0.0000000000E+00      1          
kpkp231_ts1            log                    factor                1.0000000000E+02      1.0000000000E-10      1.0000000000E+02       kp                    1.0000000000E+00      0.0000000000E+00      1          
kpkp232_ts1            log                    factor                1.0000000000E+02      1.0000000000E-10      1.0000000000E+02       kp                    1.0000000000E+00      0.0000000000E+00      1          
kpkp233_ts1            log                    factor                8.8777802981E+01      1.0000000000E-10      1.0000000000E+02       kp                    1.0000000000E+00      0.0000000000E+00      1          
kpkp234_ts1            log                    factor                2.1504512912E+01      1.0000000000E-10      1.0000000000E+02       kp                    1.0000000000E+00      0.0000000000E+00      1          
kpkp245_br1            log                    factor                1.0000000000E+02      1.0000000000E-10      1.0000000000E+02       kp                    1.0000000000E+00      0.0000000000E+00      1          
kpkp246_br1            log                    factor                1.0000000000E+02      1.0000000000E-10      1.0000000000E+02       kp                    1.0000000000E+00      0.0000000000E+00      1          
kpkp247_ts1            log                    factor                1.2711784196E-02      1.0000000000E-10      1.0000000000E+02       kp                    1.0000000000E+00      0.0000000000E+00      1          
kpkp248_ts1            log                    factor                8.7957419998E-02      1.0000000000E-10      1.0000000000E+02       kp                    1.0000000000E+00      0.0000000000E+00      1          
kpkp249_ts1            log                    factor                1.0000000000E+02      1.0000000000E-10      1.0000000000E+02       kp                    1.0000000000E+00      0.0000000000E+00      1          
kpkp250_ts1            log                    factor                4.3062947768E-01      1.0000000000E-10      1.0000000000E+02       kp                    1.0000000000E+00      0.0000000000E+00      1          
kpkp251_ts1            log                    factor                8.8297046988E-01      1.0000000000E-10      1.0000000000E+02       kp                    1.0000000000E+00      0.0000000000E+00      1          
kpkp252_ts1            log                    factor                1.0000000000E+02      1.0000000000E-10      1.0000000000E+02       kp                    1.0000000000E+00      0.0000000000E+00      1          
kpkp254_br1            log                    factor                1.0000000000E+02      1.0000000000E-10      1.0000000000E+02       kp                    1.0000000000E+00      0.0000000000E+00      1          
kpkp257_ts1            log                    factor                1.3363340224E+01      1.0000000000E-10      1.0000000000E+02       kp                    1.0000000000E+00      0.0000000000E+00      1          
kpkp258_br1            log                    factor                2.5910077812E-02      1.0000000000E-10      1.0000000000E+02       kp                    1.0000000000E+00      0.0000000000E+00      1          
kpkp259_br1            log                    factor                3.4759395162E-01      1.0000000000E-10      1.0000000000E+02       kp                    1.0000000000E+00      0.0000000000E+00      1          
kpkp260_br1            log                    factor                9.3350355932E+00      1.0000000000E-10      1.0000000000E+02       kp                    1.0000000000E+00      0.0000000000E+00      1          
kpkp261_br1            log                    factor                1.0000000000E+02      1.0000000000E-10      1.0000000000E+02       kp                    1.0000000000E+00      0.0000000000E+00      1          
kpkp262_ts1            log                    factor                1.0000000000E+02      1.0000000000E-10      1.0000000000E+02       kp                    1.0000000000E+00      0.0000000000E+00      1          
kpkp263_ts1            log                    factor                1.0000000000E+02      1.0000000000E-10      1.0000000000E+02       kp                    1.0000000000E+00      0.0000000000E+00      1          
kpkp264_ts1            log                    factor                1.4626528207E+00      1.0000000000E-10      1.0000000000E+02       kp                    1.0000000000E+00      0.0000000000E+00      1          
kpkp265_ts1            log                    factor                1.8827874450E-01      1.0000000000E-10      1.0000000000E+02       kp                    1.0000000000E+00      0.0000000000E+00      1          
kpkp266_ts1            log                    factor                1.0000000000E+02      1.0000000000E-10      1.0000000000E+02       kp                    1.0000000000E+00      0.0000000000E+00      1          
kpkp267_ts1            log                    factor                1.2266062726E+00      1.0000000000E-10      1.0000000000E+02       kp                    1.0000000000E+00      0.0000000000E+00      1          
kpkp268_ts1            log                    factor                1.0000000000E+02      1.0000000000E-10      1.0000000000E+02       kp                    1.0000000000E+00      0.0000000000E+00      1          
kpkp269_ts1            log                    factor                1.0000000000E+02      1.0000000000E-10      1.0000000000E+02       kp                    1.0000000000E+00      0.0000000000E+00      1          
kpkp270_ts1            log                    factor                2.1392195861E-03      1.0000000000E-10      1.0000000000E+02       kp                    1.0000000000E+00      0.0000000000E+00      1          
kpkp271_ts1            log                    factor                1.0000000000E+02      1.0000000000E-10      1.0000000000E+02       kp                    1.0000000000E+00      0.0000000000E+00      1          
kpkp272_ts1            log                    factor                1.0000000000E+02      1.0000000000E-10      1.0000000000E+02       kp                    1.0000000000E+00      0.0000000000E+00      1          
kpkp273_br1            log                    factor                7.5246970530E-04      1.0000000000E-10      1.0000000000E+02       kp                    1.0000000000E+00      0.0000000000E+00      1          
kpkp274_br1            log                    factor                1.5057722994E+01      1.0000000000E-10      1.0000000000E+02       kp                    1.0000000000E+00      0.0000000000E+00      1          
kpkp275_ts1            log                    factor                1.0000000000E+02      1.0000000000E-10      1.0000000000E+02       kp                    1.0000000000E+00      0.0000000000E+00      1          
kpkp276_ts1            log                    factor                6.8822629298E-07      1.0000000000E-10      1.0000000000E+02       kp                    1.0000000000E+00      0.0000000000E+00      1          
kpkp277_ts1            log                    factor                1.8564969146E+00      1.0000000000E-10      1.0000000000E+02       kp                    1.0000000000E+00      0.0000000000E+00      1          
kpkp278_ts1            log                    factor                1.5019024816E+01      1.0000000000E-10      1.0000000000E+02       kp                    1.0000000000E+00      0.0000000000E+00      1          
kpkp279_ts1            log                    factor                2.3226931497E-03      1.0000000000E-10      1.0000000000E+02       kp                    1.0000000000E+00      0.0000000000E+00      1          
kpkp280_ts1            log                    factor                1.0000000000E+02      1.0000000000E-10      1.0000000000E+02       kp                    1.0000000000E+00      0.0000000000E+00      1          
kpkp281_ts1            log                    factor                8.6829819764E+00      1.0000000000E-10      1.0000000000E+02       kp                    1.0000000000E+00      0.0000000000E+00      1          
kpkp282_ts1            log                    factor                1.6586132062E+01      1.0000000000E-10      1.0000000000E+02       kp                    1.0000000000E+00      0.0000000000E+00      1          
kpkp283_ts1            log                    factor                1.0000000000E+02      1.0000000000E-10      1.0000000000E+02       kp                    1.0000000000E+00      0.0000000000E+00      1          
kpkp284_ts1            log                    factor                5.4296401557E-02      1.0000000000E-10      1.0000000000E+02       kp                    1.0000000000E+00      0.0000000000E+00      1          
kpkp285_ts1            log                    factor                6.3163517229E-05      1.0000000000E-10      1.0000000000E+02       kp                    1.0000000000E+00      0.0000000000E+00      1          
kpkp286_ts1            log                    factor                5.4691558077E-02      1.0000000000E-10      1.0000000000E+02       kp                    1.0000000000E+00      0.0000000000E+00      1          
kpkp287_ts1            log                    factor                6.9847708013E-04      1.0000000000E-10      1.0000000000E+02       kp                    1.0000000000E+00      0.0000000000E+00      1          
kpkp288_ts1            log                    factor                1.0000000000E+02      1.0000000000E-10      1.0000000000E+02       kp                    1.0000000000E+00      0.0000000000E+00      1          
kpkp289_ts1            log                    factor                1.2064993538E-02      1.0000000000E-10      1.0000000000E+02       kp                    1.0000000000E+00      0.0000000000E+00      1          