pcf
* control data
             restart          estimation
      2710      1224         4         0         9         0
         3         2              single               point         1         0         0            noobsref
   2.000000E+01  -3.000000E+00   3.000000E-01   1.000000E-02       -10       999          lamforgive        noderforgive
   1.000000E+01   1.000000E+01   1.000000E-03         0         0
   1.000000E-01         1   1.100000E+00               noaui          nosenreuse        noboundscale
         0   1.000000E-02         3         3   1.000000E-02         3   0.000000E+00         1  -1.000000E+00
         0         0         0         0             jcosave          verboserec          jcosaveitn          reisaveitn          parsaveitn        noparsaverun
* singular value decomposition
1
1715  5.000000e-007
1
* parameter groups
                   kz              relative    1.000000E-02  0              always_3    2.000000E+00             parabolic    1.000000E-05    5.000000E-01               smaller
                   kp              relative    1.000000E-02  0              always_3    2.000000E+00             parabolic    1.000000E-05    5.000000E-01               smaller
                 rech              relative    1.000000E-02  0              always_3    2.000000E+00             parabolic    1.000000E-05    5.000000E-01               smaller
                 cond              relative    1.000000E-02  0              always_3    2.000000E+00             parabolic    1.000000E-05    5.000000E-01               smaller
* parameter data
                 sfrc                   log                factor    1.112734E+15    1.000000E-10    1.000000E+10                  cond    1.000000E+00    0.000000E+00          1
                 ghbc                   log                factor    1.043187E-02    1.000000E-10    1.000000E+10                  cond    1.000000E+00    0.000000E+00          1
           ratio_sgab                 fixed                factor    1.000000E+00    1.000000E+00    1.000000E+10                  rech    1.000000E+00    0.000000E+00          1
           ratio_sgbc                 fixed                factor    1.000000E+00    7.000000E-01    1.000000E+10                  rech    1.000000E+00    0.000000E+00          1
           ratio_sgcd                 fixed                factor    1.000000E+00    1.000000E+00    1.000000E+10                  rech    1.000000E+00    0.000000E+00          1
         rch_mult_sgd                   log                factor    3.064046E-07    1.000000E-10    1.000000E+10                  rech    1.000000E+00    0.000000E+00          1
           kpkp89_mc1                   log                factor    7.135515E+03    1.000000E-10    1.000000E+02                    kp    1.000000E+00    0.000000E+00          1
           kpkp90_mc1                   log                factor    6.324594E-09    1.000000E-10    1.000000E+02                    kp    1.000000E+00    0.000000E+00          1
          kpkp106_mc1                   log                factor    8.417144E+06    1.000000E-10    1.000000E+02                    kp    1.000000E+00    0.000000E+00          1
          kpkp107_mc1                   log                factor    4.243337E+00    1.000000E-10    1.000000E+02                    kp    1.000000E+00    0.000000E+00          1
          kpkp108_mc1                   log                factor    5.728296E+02    1.000000E-10    1.000000E+02                    kp    1.000000E+00    0.000000E+00          1
          kpkp122_mc1                   log                factor    2.011147E+03    1.000000E-10    1.000000E+02                    kp    1.000000E+00    0.000000E+00          1
          kpkp123_mc1                   log                factor    6.317577E-03    1.000000E-10    1.000000E+02                    kp    1.000000E+00    0.000000E+00          1
          kpkp124_mc1                   log                factor    4.381239E-04    1.000000E-10    1.000000E+02                    kp    1.000000E+00    0.000000E+00          1
          kpkp125_mc1                   log                factor    1.220561E+03    1.000000E-10    1.000000E+02                    kp    1.000000E+00    0.000000E+00          1
          kpkp126_mc1                   log                factor    3.117856E+05    1.000000E-10    1.000000E+02                    kp    1.000000E+00    0.000000E+00          1
          kpkp139_mc1                   log                factor    3.114776E-02    1.000000E-10    1.000000E+02                    kp    1.000000E+00    0.000000E+00          1
          kpkp140_bh1                   log                factor    8.715731E-10    1.000000E-10    1.000000E+02                    kp    1.000000E+00    0.000000E+00          1
          kpkp141_mc1                   log                factor    3.102360E+03    1.000000E-10    1.000000E+02                    kp    1.000000E+00    0.000000E+00          1
          kpkp142_mc1                   log                factor    2.292123E-01    1.000000E-10    1.000000E+02                    kp    1.000000E+00    0.000000E+00          1
          kpkp143_br1                   log                factor    5.349960E+02    1.000000E-10    1.000000E+02                    kp    1.000000E+00    0.000000E+00          1
          kpkp144_br1                   log                factor    8.904803E+00    1.000000E-10    1.000000E+02                    kp    1.000000E+00    0.000000E+00          1
          kpkp156_mc1                   log                factor    7.224745E+00    1.000000E-10    1.000000E+02                    kp    1.000000E+00    0.000000E+00          1
          kpkp157_mc1                   log                factor    6.760270E+01    1.000000E-10    1.000000E+02                    kp    1.000000E+00    0.000000E+00          1
          kpkp158_tn1                   log                factor    9.006053E-01    1.000000E-10    1.000000E+02                    kp    1.000000E+00    0.000000E+00          1
          kpkp159_br1                   log                factor    5.935132E+04    1.000000E-10    1.000000E+02                    kp    1.000000E+00    0.000000E+00          1
          kpkp160_br1                   log                factor    2.164861E-02    1.000000E-10    1.000000E+02                    kp    1.000000E+00    0.000000E+00          1
          kpkp161_br1                   log                factor    1.137237E-01    1.000000E-10    1.000000E+02                    kp    1.000000E+00    0.000000E+00          1
          kpkp173_mc1                   log                factor    1.516557E+01    1.000000E-10    1.000000E+02                    kp    1.000000E+00    0.000000E+00          1
          kpkp174_mc1                   log                factor    8.799057E-03    1.000000E-10    1.000000E+02                    kp    1.000000E+00    0.000000E+00          1
          kpkp175_tn1                   log                factor    2.263029E-02    1.000000E-10    1.000000E+02                    kp    1.000000E+00    0.000000E+00          1
          kpkp176_br1                   log                factor    5.111811E+01    1.000000E-10    1.000000E+02                    kp    1.000000E+00    0.000000E+00          1
          kpkp177_br1                   log                factor    3.927040E-04    1.000000E-10    1.000000E+02                    kp    1.000000E+00    0.000000E+00          1
          kpkp191_mc1                   log                factor    1.168807E-06    1.000000E-10    1.000000E+02                    kp    1.000000E+00    0.000000E+00          1
          kpkp192_tn1                   log                factor    4.789655E-03    1.000000E-10    1.000000E+02                    kp    1.000000E+00    0.000000E+00          1
          kpkp193_br1                   log                factor    8.940158E-02    1.000000E-10    1.000000E+02                    kp    1.000000E+00    0.000000E+00          1
          kpkp202_ts1                   log                factor    1.542733E-01    1.000000E-10    1.000000E+02                    kp    1.000000E+00    0.000000E+00          1
          kpkp203_mc1                   log                factor    4.486200E-04    1.000000E-10    1.000000E+02                    kp    1.000000E+00    0.000000E+00          1
          kpkp204_br1                   log                factor    3.696639E-08    1.000000E-10    1.000000E+02                    kp    1.000000E+00    0.000000E+00          1
          kpkp205_mc1                   log                factor    6.243666E-02    1.000000E-10    1.000000E+02                    kp    1.000000E+00    0.000000E+00          1
          kpkp206_mc1                   log                factor    2.203026E-04    1.000000E-10    1.000000E+02                    kp    1.000000E+00    0.000000E+00          1
          kpkp207_mc1                   log                factor    6.571087E+01    1.000000E-10    1.000000E+02                    kp    1.000000E+00    0.000000E+00          1
          kpkp208_tn1                   log                factor    1.559642E-01    1.000000E-10    1.000000E+02                    kp    1.000000E+00    0.000000E+00          1
          kpkp209_ks1                   log                factor    2.459327E+00    1.000000E-10    1.000000E+02                    kp    1.000000E+00    0.000000E+00          1
          kpkp217_ts1                   log                factor    9.544943E+01    1.000000E-10    1.000000E+02                    kp    1.000000E+00    0.000000E+00          1
          kpkp218_ts1                   log                factor    1.082231E-02    1.000000E-10    1.000000E+02                    kp    1.000000E+00    0.000000E+00          1
          kpkp219_ts1                   log                factor    9.839099E+04    1.000000E-10    1.000000E+02                    kp    1.000000E+00    0.000000E+00          1
          kpkp220_br1                   log                factor    3.179668E+04    1.000000E-10    1.000000E+02                    kp    1.000000E+00    0.000000E+00          1
          kpkp221_br1                   log                factor    2.655087E+03    1.000000E-10    1.000000E+02                    kp    1.000000E+00    0.000000E+00          1
          kpkp222_br1                   log                factor    6.520511E+00    1.000000E-10    1.000000E+02                    kp    1.000000E+00    0.000000E+00          1
          kpkp223_br1                   log                factor    2.803769E-01    1.000000E-10    1.000000E+02                    kp    1.000000E+00    0.000000E+00          1
          kpkp224_ks1                   log                factor    8.555689E+06    1.000000E-10    1.000000E+02                    kp    1.000000E+00    0.000000E+00          1
          kpkp225_ks1                   log                factor    2.408315E+02    1.000000E-10    1.000000E+02                    kp    1.000000E+00    0.000000E+00          1
          kpkp235_br1                   log                factor    3.074060E+00    1.000000E-10    1.000000E+02                    kp    1.000000E+00    0.000000E+00          1
          kpkp236_ts1                   log                factor    1.176744E-03    1.000000E-10    1.000000E+02                    kp    1.000000E+00    0.000000E+00          1
          kpkp237_br1                   log                factor    2.404765E-05    1.000000E-10    1.000000E+02                    kp    1.000000E+00    0.000000E+00          1
          kpkp238_br1                   log                factor    8.145936E-03    1.000000E-10    1.000000E+02                    kp    1.000000E+00    0.000000E+00          1
          kpkp239_br1                   log                factor    1.540523E+06    1.000000E-10    1.000000E+02                    kp    1.000000E+00    0.000000E+00          1
          kpkp240_br1                   log                factor    1.276982E+07    1.000000E-10    1.000000E+02                    kp    1.000000E+00    0.000000E+00          1
          kpkp253_br1                   log                factor    2.908338E-02    1.000000E-10    1.000000E+02                    kp    1.000000E+00    0.000000E+00          1
          kpkp255_br1                   log                factor    3.790706E+07    1.000000E-10    1.000000E+02                    kp    1.000000E+00    0.000000E+00          1
          kpkp256_br1                   log                factor    1.075389E+01    1.000000E-10    1.000000E+02                    kp    1.000000E+00    0.000000E+00          1
          kpkp162_br1                   log                factor    4.288227E+05    1.000000E-10    1.000000E+02                    kp    1.000000E+00    0.000000E+00          1
          kpkp178_br1                   log                factor    1.633242E+03    1.000000E-10    1.000000E+02                    kp    1.000000E+00    0.000000E+00          1
          kpkp179_br1                   log                factor    1.012039E-05    1.000000E-10    1.000000E+02                    kp    1.000000E+00    0.000000E+00          1
          kpkp194_br1                   log                factor    4.866599E-03    1.000000E-10    1.000000E+02                    kp    1.000000E+00    0.000000E+00          1
          kpkp195_br1                   log                factor    1.268638E-06    1.000000E-10    1.000000E+02                    kp    1.000000E+00    0.000000E+00          1
          kpkp196_br1                   log                factor    7.850840E+08    1.000000E-10    1.000000E+02                    kp    1.000000E+00    0.000000E+00          1
          kpkp210_br1                   log                factor    6.222160E+01    1.000000E-10    1.000000E+02                    kp    1.000000E+00    0.000000E+00          1
          kpkp211_br1                   log                factor    7.082894E+01    1.000000E-10    1.000000E+02                    kp    1.000000E+00    0.000000E+00          1
          kpkp212_br1                   log                factor    1.020546E+08    1.000000E-10    1.000000E+02                    kp    1.000000E+00    0.000000E+00          1
          kpkp226_br1                   log                factor    8.471980E+00    1.000000E-10    1.000000E+02                    kp    1.000000E+00    0.000000E+00          1
          kpkp227_br1                   log                factor    2.403723E+01    1.000000E-10    1.000000E+02                    kp    1.000000E+00    0.000000E+00          1
          kpkp228_br1                   log                factor    1.313760E-02    1.000000E-10    1.000000E+02                    kp    1.000000E+00    0.000000E+00          1
          kpkp241_br1                   log                factor    1.191828E+02    1.000000E-10    1.000000E+02                    kp    1.000000E+00    0.000000E+00          1
          kpkp242_br1                   log                factor    4.830433E+02    1.000000E-10    1.000000E+02                    kp    1.000000E+00    0.000000E+00          1
          kpkp243_br1                   log                factor    2.410297E+02    1.000000E-10    1.000000E+02                    kp    1.000000E+00    0.000000E+00          1
          kpkp180_br1                   log                factor    2.060945E-01    1.000000E-10    1.000000E+02                    kp    1.000000E+00    0.000000E+00          1
          kpkp197_br1                   log                factor    2.989760E-05    1.000000E-10    1.000000E+02                    kp    1.000000E+00    0.000000E+00          1
          kpkp198_br1                   log                factor    2.087786E+03    1.000000E-10    1.000000E+02                    kp    1.000000E+00    0.000000E+00          1
          kpkp213_br1                   log                factor    6.350117E+03    1.000000E-10    1.000000E+02                    kp    1.000000E+00    0.000000E+00          1
          kpkp214_br1                   log                factor    1.873776E-07    1.000000E-10    1.000000E+02                    kp    1.000000E+00    0.000000E+00          1
          kpkp215_br1                   log                factor    6.104502E-03    1.000000E-10    1.000000E+02                    kp    1.000000E+00    0.000000E+00          1
          kpkp216_ts1                   log                factor    1.449069E-03    1.000000E-10    1.000000E+02                    kp    1.000000E+00    0.000000E+00          1
          kpkp229_br1                   log                factor    8.544443E-01    1.000000E-10    1.000000E+02                    kp    1.000000E+00    0.000000E+00          1
          kpkp230_br1                   log                factor    2.782733E+06    1.000000E-10    1.000000E+02                    kp    1.000000E+00    0.000000E+00          1
          kpkp231_ts1                   log                factor    1.543954E-03    1.000000E-10    1.000000E+02                    kp    1.000000E+00    0.000000E+00          1
          kpkp232_ts1                   log                factor    7.696295E+02    1.000000E-10    1.000000E+02                    kp    1.000000E+00    0.000000E+00          1
          kpkp233_ts1                   log                factor    4.344175E+00    1.000000E-10    1.000000E+02                    kp    1.000000E+00    0.000000E+00          1
          kpkp234_ts1                   log                factor    8.518041E+09    1.000000E-10    1.000000E+02                    kp    1.000000E+00    0.000000E+00          1
          kpkp245_br1                   log                factor    3.227415E+04    1.000000E-10    1.000000E+02                    kp    1.000000E+00    0.000000E+00          1
          kpkp246_br1                   log                factor    2.326709E-02    1.000000E-10    1.000000E+02                    kp    1.000000E+00    0.000000E+00          1
          kpkp247_ts1                   log                factor    1.200989E+03    1.000000E-10    1.000000E+02                    kp    1.000000E+00    0.000000E+00          1
          kpkp248_ts1                   log                factor    4.371051E-02    1.000000E-10    1.000000E+02                    kp    1.000000E+00    0.000000E+00          1
          kpkp249_ts1                   log                factor    5.368068E-02    1.000000E-10    1.000000E+02                    kp    1.000000E+00    0.000000E+00          1
          kpkp250_ts1                   log                factor    4.737111E+04    1.000000E-10    1.000000E+02                    kp    1.000000E+00    0.000000E+00          1
          kpkp251_ts1                   log                factor    1.985908E-02    1.000000E-10    1.000000E+02                    kp    1.000000E+00    0.000000E+00          1
          kpkp252_ts1                   log                factor    4.747046E+01    1.000000E-10    1.000000E+02                    kp    1.000000E+00    0.000000E+00          1
          kpkp254_br1                   log                factor    1.252934E+03    1.000000E-10    1.000000E+02                    kp    1.000000E+00    0.000000E+00          1
          kpkp257_ts1                   log                factor    8.358360E-01    1.000000E-10    1.000000E+02                    kp    1.000000E+00    0.000000E+00          1
          kpkp258_br1                   log                factor    4.315380E-02    1.000000E-10    1.000000E+02                    kp    1.000000E+00    0.000000E+00          1
          kpkp259_br1                   log                factor    5.256760E+06    1.000000E-10    1.000000E+02                    kp    1.000000E+00    0.000000E+00          1
          kpkp260_br1                   log                factor    1.134033E+07    1.000000E-10    1.000000E+02                    kp    1.000000E+00    0.000000E+00          1
          kpkp261_br1                   log                factor    1.298674E+01    1.000000E-10    1.000000E+02                    kp    1.000000E+00    0.000000E+00          1
          kpkp262_ts1                   log                factor    4.684392E-01    1.000000E-10    1.000000E+02                    kp    1.000000E+00    0.000000E+00          1
          kpkp263_ts1                   log                factor    5.114000E-04    1.000000E-10    1.000000E+02                    kp    1.000000E+00    0.000000E+00          1
          kpkp264_ts1                   log                factor    3.195625E+06    1.000000E-10    1.000000E+02                    kp    1.000000E+00    0.000000E+00          1
          kpkp265_ts1                   log                factor    1.915280E+00    1.000000E-10    1.000000E+02                    kp    1.000000E+00    0.000000E+00          1
          kpkp266_ts1                   log                factor    3.824074E-01    1.000000E-10    1.000000E+02                    kp    1.000000E+00    0.000000E+00          1
          kpkp267_ts1                   log                factor    5.900103E+01    1.000000E-10    1.000000E+02                    kp    1.000000E+00    0.000000E+00          1
          kpkp268_ts1                   log                factor    1.007975E-01    1.000000E-10    1.000000E+02                    kp    1.000000E+00    0.000000E+00          1
          kpkp269_ts1                   log                factor    1.907884E+02    1.000000E-10    1.000000E+02                    kp    1.000000E+00    0.000000E+00          1
          kpkp270_ts1                   log                factor    2.279664E-02    1.000000E-10    1.000000E+02                    kp    1.000000E+00    0.000000E+00          1
          kpkp271_ts1                   log                factor    5.269546E-03    1.000000E-10    1.000000E+02                    kp    1.000000E+00    0.000000E+00          1
          kpkp272_ts1                   log                factor    1.176304E+00    1.000000E-10    1.000000E+02                    kp    1.000000E+00    0.000000E+00          1
          kpkp273_br1                   log                factor    5.164446E+01    1.000000E-10    1.000000E+02                    kp    1.000000E+00    0.000000E+00          1
          kpkp274_br1                   log                factor    6.088012E-04    1.000000E-10    1.000000E+02                    kp    1.000000E+00    0.000000E+00          1
          kpkp275_ts1                   log                factor    3.387433E-01    1.000000E-10    1.000000E+02                    kp    1.000000E+00    0.000000E+00          1
          kpkp276_ts1                   log                factor    7.055017E-04    1.000000E-10    1.000000E+02                    kp    1.000000E+00    0.000000E+00          1
          kpkp277_ts1                   log                factor    6.214456E+03    1.000000E-10    1.000000E+02                    kp    1.000000E+00    0.000000E+00          1
          kpkp278_ts1                   log                factor    4.190922E+02    1.000000E-10    1.000000E+02                    kp    1.000000E+00    0.000000E+00          1
          kpkp279_ts1                   log                factor    1.470457E+03    1.000000E-10    1.000000E+02                    kp    1.000000E+00    0.000000E+00          1
          kpkp280_ts1                   log                factor    1.289156E-01    1.000000E-10    1.000000E+02                    kp    1.000000E+00    0.000000E+00          1
          kpkp281_ts1                   log                factor    3.309305E-01    1.000000E-10    1.000000E+02                    kp    1.000000E+00    0.000000E+00          1
          kpkp282_ts1                   log                factor    8.760323E+01    1.000000E-10    1.000000E+02                    kp    1.000000E+00    0.000000E+00          1
          kpkp283_ts1                   log                factor    1.607561E+03    1.000000E-10    1.000000E+02                    kp    1.000000E+00    0.000000E+00          1
          kpkp284_ts1                   log                factor    1.486937E-01    1.000000E-10    1.000000E+02                    kp    1.000000E+00    0.000000E+00          1
          kpkp285_ts1                   log                factor    3.302319E+00    1.000000E-10    1.000000E+02                    kp    1.000000E+00    0.000000E+00          1
          kpkp286_ts1                   log                factor    7.770290E+02    1.000000E-10    1.000000E+02                    kp    1.000000E+00    0.000000E+00          1
          kpkp287_ts1                   log                factor    7.879221E+00    1.000000E-10    1.000000E+02                    kp    1.000000E+00    0.000000E+00          1
          kpkp288_ts1                   log                factor    2.935730E-02    1.000000E-10    1.000000E+02                    kp    1.000000E+00    0.000000E+00          1
          kpkp289_ts1                   log                factor    1.618913E+03    1.000000E-10    1.000000E+02                    kp    1.000000E+00    0.000000E+00          1
          kpkp290_ts1                   log                factor    4.958359E-02    1.000000E-10    1.000000E+02                    kp    1.000000E+00    0.000000E+00          1
          kpkp291_ts1                   log                factor    2.569292E+02    1.000000E-10    1.000000E+02                    kp    1.000000E+00    0.000000E+00          1
          kpkp292_ts1                   log                factor    2.731111E+02    1.000000E-10    1.000000E+02                    kp    1.000000E+00    0.000000E+00          1
          kpkp293_ts1                   log                factor    1.494353E-03    1.000000E-10    1.000000E+02                    kp    1.000000E+00    0.000000E+00          1
          kpkp294_ts1                   log                factor    7.296689E+06    1.000000E-10    1.000000E+02                    kp    1.000000E+00    0.000000E+00          1
          kpkp295_ts1                   log                factor    1.017364E-05    1.000000E-10    1.000000E+02                    kp    1.000000E+00    0.000000E+00          1
          kpkp296_ts1                   log                factor    9.313466E+04    1.000000E-10    1.000000E+02                    kp    1.000000E+00    0.000000E+00          1
          kpkp297_ts1                   log                factor    6.402218E+01    1.000000E-10    1.000000E+02                    kp    1.000000E+00    0.000000E+00          1
          kpkp298_ts1                   log                factor    2.606530E-03    1.000000E-10    1.000000E+02                    kp    1.000000E+00    0.000000E+00          1
          kpkp299_ts1                   log                factor    1.042553E+04    1.000000E-10    1.000000E+02                    kp    1.000000E+00    0.000000E+00          1
          kpkp300_ts1                   log                factor    1.044641E+01    1.000000E-10    1.000000E+02                    kp    1.000000E+00    0.000000E+00          1
          kpkp301_ts1                   log                factor    2.768270E-01    1.000000E-10    1.000000E+02                    kp    1.000000E+00    0.000000E+00          1
          kpkp302_ts1                   log                factor    1.193251E+00    1.000000E-10    1.000000E+02                    kp    1.000000E+00    0.000000E+00          1
          kpkp303_ts1                   log                factor    2.225568E+02    1.000000E-10    1.000000E+02                    kp    1.000000E+00    0.000000E+00          1
          kpkp304_ts1                   log                factor    5.167103E+02    1.000000E-10    1.000000E+02                    kp    1.000000E+00    0.000000E+00          1
          kpkp305_ts1                   log                factor    3.850076E+04    1.000000E-10    1.000000E+02                    kp    1.000000E+00    0.000000E+00          1
          kpkp306_ts1                   log                factor    3.932735E-01    1.000000E-10    1.000000E+02                    kp    1.000000E+00    0.000000E+00          1
          kpkp307_ts1                   log                factor    1.109164E-04    1.000000E-10    1.000000E+02                    kp    1.000000E+00    0.000000E+00          1
          kpkp308_ts1                   log                factor    9.807970E+01    1.000000E-10    1.000000E+02                    kp    1.000000E+00    0.000000E+00          1
          kpkp309_ts1                   log                factor    2.131931E+01    1.000000E-10    1.000000E+02                    kp    1.000000E+00    0.000000E+00          1
          kpkp310_ts1                   log                factor    5.041408E-02    1.000000E-10    1.000000E+02                    kp    1.000000E+00    0.000000E+00          1
          kpkp311_ts1                   log                factor    5.021207E-01    1.000000E-10    1.000000E+02                    kp    1.000000E+00    0.000000E+00          1
          kpkp312_ts1                   log                factor    1.219311E+00    1.000000E-10    1.000000E+02                    kp    1.000000E+00    0.000000E+00          1
          kpkp313_ts1                   log                factor    6.433685E+02    1.000000E-10    1.000000E+02                    kp    1.000000E+00    0.000000E+00          1
          kpkp314_ts1                   log                factor    1.756869E+05    1.000000E-10    1.000000E+02                    kp    1.000000E+00    0.000000E+00          1
          kpkp315_ts1                   log                factor    4.827832E+01    1.000000E-10    1.000000E+02                    kp    1.000000E+00    0.000000E+00          1