pcf
* control data
             restart          estimation
      2710      1224         4         0         9         0
         3         2              single               point         1         0         0          noobsreref
   2.000000E+01  -3.000000E+00   3.000000E-01   1.000000E-02       -10       999          lamforgive        noderforgive
   1.000000E+01   1.000000E+01   1.000000E-03         0         0
   1.000000E-01         1   1.100000E+00               noaui          nosenreuse        noboundscale
         0   1.000000E-02         3         3   1.000000E-02         3   0.000000E+00         1  -1.000000E+00
         0         0         0         0             jcosave          verboserec          jcosaveitn          reisaveitn          parsaveitn        noparsaverun
* singular value decomposition
1
1715  5.000000e-007
1
* parameter groups
kz              relative     1.0000000000E-02  0.0              always_3     2.0000000000E+00             parabolic     1.0000000000E-05     5.0000000000E-01               smaller
                  kp              relative     1.0000000000E-02  0.0              always_3     2.0000000000E+00             parabolic     1.0000000000E-05     5.0000000000E-01               smaller
                rech              relative     1.0000000000E-02  0.0              always_3     2.0000000000E+00             parabolic     1.0000000000E-05     5.0000000000E-01               smaller
                cond              relative     1.0000000000E-02  0.0              always_3     2.0000000000E+00             parabolic     1.0000000000E-05     5.0000000000E-01               smaller
* parameter data
sfrc                   log                factor     3.3146598871E-01     1.0000000000E-10     1.0000000000E+10                  cond     1.0000000000E+00     0.0000000000E+00          1
                ghbc                   log                factor     9.4852278690E+04     1.0000000000E-10     1.0000000000E+10                  cond     1.0000000000E+00     0.0000000000E+00          1
          ratio_sgab                 fixed                factor     1.0000000000E+00     1.0000000000E+00     1.0000000000E+10                  rech     1.0000000000E+00     0.0000000000E+00          1
          ratio_sgbc                 fixed                factor     1.0000000000E+00     7.0000000000E-01     1.0000000000E+10                  rech     1.0000000000E+00     0.0000000000E+00          1
          ratio_sgcd                 fixed                factor     1.0000000000E+00     1.0000000000E+00     1.0000000000E+10                  rech     1.0000000000E+00     0.0000000000E+00          1
        rch_mult_sgd                   log                factor     6.0854091111E+00     1.0000000000E-10     1.0000000000E+10                  rech     1.0000000000E+00     0.0000000000E+00          1
          kpkp89_mc1                   log                factor     1.3091989650E-05     1.0000000000E-10     1.0000000000E+02                    kp     1.0000000000E+00     0.0000000000E+00          1
          kpkp90_mc1                   log                factor     3.9623563589E+00     1.0000000000E-10     1.0000000000E+02                    kp     1.0000000000E+00     0.0000000000E+00          1
         kpkp106_mc1                   log                factor     7.6897921167E+01     1.0000000000E-10     1.0000000000E+02                    kp     1.0000000000E+00     0.0000000000E+00          1
         kpkp107_mc1                   log                factor     1.9530363294E-03     1.0000000000E-10     1.0000000000E+02                    kp     1.0000000000E+00     0.0000000000E+00          1
         kpkp108_mc1                   log                factor     1.1036531133E+02     1.0000000000E-10     1.0000000000E+02                    kp     1.0000000000E+00     0.0000000000E+00          1
         kpkp122_mc1                   log                factor     2.0766744368E+00     1.0000000000E-10     1.0000000000E+02                    kp     1.0000000000E+00     0.0000000000E+00          1
         kpkp123_mc1                   log                factor     1.6400046411E+02     1.0000000000E-10     1.0000000000E+02                    kp     1.0000000000E+00     0.0000000000E+00          1
         kpkp124_mc1                   log                factor     1.8671652562E-06     1.0000000000E-10     1.0000000000E+02                    kp     1.0000000000E+00     0.0000000000E+00          1
         kpkp125_mc1                   log                factor     5.4423196973E+00     1.0000000000E-10     1.0000000000E+02                    kp     1.0000000000E+00     0.0000000000E+00          1
         kpkp126_mc1                   log                factor     1.0056351737E-04     1.0000000000E-10     1.0000000000E+02                    kp     1.0000000000E+00     0.0000000000E+00          1
         kpkp139_mc1                   log                factor     1.2264028757E-01     1.0000000000E-10     1.0000000000E+02                    kp     1.0000000000E+00     0.0000000000E+00          1
         kpkp140_bh1                   log                factor     4.8465826277E-02     1.0000000000E-10     1.0000000000E+02                    kp     1.0000000000E+00     0.0000000000E+00          1
         kpkp141_mc1                   log                factor     4.9564538021E+01     1.0000000000E-10     1.0000000000E+02                    kp     1.0000000000E+00     0.0000000000E+00          1
         kpkp142_mc1                   log                factor     8.0990928578E-02     1.0000000000E-10     1.0000000000E+02                    kp     1.0000000000E+00     0.0000000000E+00          1
         kpkp143_br1                   log                factor     3.0263481976E+02     1.0000000000E-10     1.0000000000E+02                    kp     1.0000000000E+00     0.0000000000E+00          1
         kpkp144_br1                   log                factor     2.9914912424E+06     1.0000000000E-10     1.0000000000E+02                    kp     1.0000000000E+00     0.0000000000E+00          1
         kpkp156_mc1                   log                factor     7.5864986294E-03     1.0000000000E-10     1.0000000000E+02                    kp     1.0000000000E+00     0.0000000000E+00          1
         kpkp157_mc1                   log                factor     1.3935522062E+02     1.0000000000E-10     1.0000000000E+02                    kp     1.0000000000E+00     0.0000000000E+00          1
         kpkp158_tn1                   log                factor     1.4898543923E+07     1.0000000000E-10     1.0000000000E+02                    kp     1.0000000000E+00     0.0000000000E+00          1
         kpkp159_br1                   log                factor     2.5261949437E+02     1.0000000000E-10     1.0000000000E+02                    kp     1.0000000000E+00     0.0000000000E+00          1
         kpkp160_br1                   log                factor     2.3622623669E-02     1.0000000000E-10     1.0000000000E+02                    kp     1.0000000000E+00     0.0000000000E+00          1
         kpkp161_br1                   log                factor     4.7700483801E+01     1.0000000000E-10     1.0000000000E+02                    kp     1.0000000000E+00     0.0000000000E+00          1
         kpkp173_mc1                   log                factor     6.9077634867E+05     1.0000000000E-10     1.0000000000E+02                    kp     1.0000000000E+00     0.0000000000E+00          1
         kpkp174_mc1                   log                factor     6.7928143080E-05     1.0000000000E-10     1.0000000000E+02                    kp     1.0000000000E+00     0.0000000000E+00          1
         kpkp175_tn1                   log                factor     1.4183549794E+00     1.0000000000E-10     1.0000000000E+02                    kp     1.0000000000E+00     0.0000000000E+00          1
         kpkp176_br1                   log                factor     2.3648754568E-02     1.0000000000E-10     1.0000000000E+02                    kp     1.0000000000E+00     0.0000000000E+00          1
         kpkp177_br1                   log                factor     2.1169921238E+00     1.0000000000E-10     1.0000000000E+02                    kp     1.0000000000E+00     0.0000000000E+00          1
         kpkp191_mc1                   log                factor     9.1603032758E-03     1.0000000000E-10     1.0000000000E+02                    kp     1.0000000000E+00     0.0000000000E+00          1
         kpkp192_tn1                   log                factor     1.2225426716E+03     1.0000000000E-10     1.0000000000E+02                    kp     1.0000000000E+00     0.0000000000E+00          1
         kpkp193_br1                   log                factor     1.5901573355E-01     1.0000000000E-10     1.0000000000E+02                    kp     1.0000000000E+00     0.0000000000E+00          1
         kpkp202_ts1                   log                factor     2.7170387860E-02     1.0000000000E-10     1.0000000000E+02                    kp     1.0000000000E+00     0.0000000000E+00          1
         kpkp203_mc1                   log                factor     3.7059480714E+04     1.0000000000E-10     1.0000000000E+02                    kp     1.0000000000E+00     0.0000000000E+00          1
         kpkp204_br1                   log                factor     7.2475896107E+05     1.0000000000E-10     1.0000000000E+02                    kp     1.0000000000E+00     0.0000000000E+00          1
         kpkp205_mc1                   log                factor     1.4811645056E-02     1.0000000000E-10     1.0000000000E+02                    kp     1.0000000000E+00     0.0000000000E+00          1
         kpkp206_mc1                   log                factor     9.9300162251E+00     1.0000000000E-10     1.0000000000E+02                    kp     1.0000000000E+00     0.0000000000E+00          1
         kpkp207_mc1                   log                factor     1.7970567188E+03     1.0000000000E-10     1.0000000000E+02                    kp     1.0000000000E+00     0.0000000000E+00          1
         kpkp208_tn1                   log                factor     7.1552596460E+01     1.0000000000E-10     1.0000000000E+02                    kp     1.0000000000E+00     0.0000000000E+00          1
         kpkp209_ks1                   log                factor     9.7164941961E-03     1.0000000000E-10     1.0000000000E+02                    kp     1.0000000000E+00     0.0000000000E+00          1
         kpkp217_ts1                   log                factor     6.2951521114E-02     1.0000000000E-10     1.0000000000E+02                    kp     1.0000000000E+00     0.0000000000E+00          1
         kpkp218_ts1                   log                factor     3.9283449775E+02     1.0000000000E-10     1.0000000000E+02                    kp     1.0000000000E+00     0.0000000000E+00          1
         kpkp219_ts1                   log                factor     6.0393098009E-04     1.0000000000E-10     1.0000000000E+02                    kp     1.0000000000E+00     0.0000000000E+00          1
         kpkp220_br1                   log                factor     6.1635274333E+05     1.0000000000E-10     1.0000000000E+02                    kp     1.0000000000E+00     0.0000000000E+00          1
         kpkp221_br1                   log                factor     4.2738739755E+00     1.0000000000E-10     1.0000000000E+02                    kp     1.0000000000E+00     0.0000000000E+00          1
         kpkp222_br1                   log                factor     3.6446907138E+00     1.0000000000E-10     1.0000000000E+02                    kp     1.0000000000E+00     0.0000000000E+00          1
         kpkp223_br1                   log                factor     4.7140853613E+00     1.0000000000E-10     1.0000000000E+02                    kp     1.0000000000E+00     0.0000000000E+00          1
         kpkp224_ks1                   log                factor     2.7581687104E+01     1.0000000000E-10     1.0000000000E+02                    kp     1.0000000000E+00     0.0000000000E+00          1
         kpkp225_ks1                   log                factor     8.7661101859E+02     1.0000000000E-10     1.0000000000E+02                    kp     1.0000000000E+00     0.0000000000E+00          1
         kpkp235_br1                   log                factor     1.2537739907E-02     1.0000000000E-10     1.0000000000E+02                    kp     1.0000000000E+00     0.0000000000E+00          1
         kpkp236_ts1                   log                factor     4.8864327757E+01     1.0000000000E-10     1.0000000000E+02                    kp     1.0000000000E+00     0.0000000000E+00          1
         kpkp237_br1                   log                factor     1.3628489315E+01     1.0000000000E-10     1.0000000000E+02                    kp     1.0000000000E+00     0.0000000000E+00          1
         kpkp238_br1                   log                factor     3.2075935377E+00     1.0000000000E-10     1.0000000000E+02                    kp     1.0000000000E+00     0.0000000000E+00          1
         kpkp239_br1                   log                factor     5.3441189345E-08     1.0000000000E-10     1.0000000000E+02                    kp     1.0000000000E+00     0.0000000000E+00          1
         kpkp240_br1                   log                factor     1.5972096633E+01     1.0000000000E-10     1.0000000000E+02                    kp     1.0000000000E+00     0.0000000000E+00          1
         kpkp253_br1                   log                factor     3.1237802444E-06     1.0000000000E-10     1.0000000000E+02                    kp     1.0000000000E+00     0.0000000000E+00          1
         kpkp255_br1                   log                factor     3.5807013095E+01     1.0000000000E-10     1.0000000000E+02                    kp     1.0000000000E+00     0.0000000000E+00          1
         kpkp256_br1                   log                factor     4.5564591491E+02     1.0000000000E-10     1.0000000000E+02                    kp     1.0000000000E+00     0.0000000000E+00          1
         kpkp162_br1                   log                factor     7.7052928463E+01     1.0000000000E-10     1.0000000000E+02                    kp     1.0000000000E+00     0.0000000000E+00          1
         kpkp178_br1                   log                factor     2.2881221548E+03     1.0000000000E-10     1.0000000000E+02                    kp     1.0000000000E+00     0.0000000000E+00          1
         kpkp179_br1                   log                factor     3.7396375076E-01     1.0000000000E-10     1.0000000000E+02                    kp     1.0000000000E+00     0.0000000000E+00          1
         kpkp194_br1                   log                factor     6.3938867946E+00     1.0000000000E-10     1.0000000000E+02                    kp     1.0000000000E+00     0.0000000000E+00          1
         kpkp195_br1                   log                factor     2.5593087979E-04     1.0000000000E-10     1.0000000000E+02                    kp     1.0000000000E+00     0.0000000000E+00          1
         kpkp196_br1                   log                factor     6.1213090335E-02     1.0000000000E-10     1.0000000000E+02                    kp     1.0000000000E+00     0.0000000000E+00          1
         kpkp210_br1                   log                factor     3.3284077276E+03     1.0000000000E-10     1.0000000000E+02                    kp     1.0000000000E+00     0.0000000000E+00          1
         kpkp211_br1                   log                factor     1.2329030537E+01     1.0000000000E-10     1.0000000000E+02                    kp     1.0000000000E+00     0.0000000000E+00          1
         kpkp212_br1                   log                factor     5.9234430002E-07     1.0000000000E-10     1.0000000000E+02                    kp     1.0000000000E+00     0.0000000000E+00          1
         kpkp226_br1                   log                factor     7.3402906159E+00     1.0000000000E-10     1.0000000000E+02                    kp     1.0000000000E+00     0.0000000000E+00          1
         kpkp227_br1                   log                factor     1.1883407609E-01     1.0000000000E-10     1.0000000000E+02                    kp     1.0000000000E+00     0.0000000000E+00          1
         kpkp228_br1                   log                factor     1.4996519066E+05     1.0000000000E-10     1.0000000000E+02                    kp     1.0000000000E+00     0.0000000000E+00          1
         kpkp241_br1                   log                factor     2.5025654634E-01     1.0000000000E-10     1.0000000000E+02                    kp     1.0000000000E+00     0.0000000000E+00          1
         kpkp242_br1                   log                factor     5.9648424520E+01     1.0000000000E-10     1.0000000000E+02                    kp     1.0000000000E+00     0.0000000000E+00          1
         kpkp243_br1                   log                factor     5.6959629189E+03     1.0000000000E-10     1.0000000000E+02                    kp     1.0000000000E+00     0.0000000000E+00          1
         kpkp180_br1                   log                factor     2.2827774801E+05     1.0000000000E-10     1.0000000000E+02                    kp     1.0000000000E+00     0.0000000000E+00          1
         kpkp197_br1                   log                factor     1.2652179640E+06     1.0000000000E-10     1.0000000000E+02                    kp     1.0000000000E+00     0.0000000000E+00          1
         kpkp198_br1                   log                factor     2.4828567316E-02     1.0000000000E-10     1.0000000000E+02                    kp     1.0000000000E+00     0.0000000000E+00          1
         kpkp213_br1                   log                factor     1.2964367976E-01     1.0000000000E-10     1.0000000000E+02                    kp     1.0000000000E+00     0.0000000000E+00          1
         kpkp214_br1                   log                factor     6.0570952137E-01     1.0000000000E-10     1.0000000000E+02                    kp     1.0000000000E+00     0.0000000000E+00          1
         kpkp215_br1                   log                factor     9.4343760026E+00     1.0000000000E-10     1.0000000000E+02                    kp     1.0000000000E+00     0.0000000000E+00          1
         kpkp216_ts1                   log                factor     2.7907332844E+00     1.0000000000E-10     1.0000000000E+02                    kp     1.0000000000E+00     0.0000000000E+00          1
         kpkp229_br1                   log                factor     5.2442031556E+03     1.0000000000E-10     1.0000000000E+02                    kp     1.0000000000E+00     0.0000000000E+00          1
         kpkp230_br1                   log                factor     1.4449823340E+06     1.0000000000E-10     1.0000000000E+02                    kp     1.0000000000E+00     0.0000000000E+00          1
         kpkp231_ts1                   log                factor     9.4228824288E-01     1.0000000000E-10     1.0000000000E+02                    kp     1.0000000000E+00     0.0000000000E+00          1
         kpkp232_ts1                   log                factor     1.5389201237E-03     1.0000000000E-10     1.0000000000E+02                    kp     1.0000000000E+00     0.0000000000E+00          1
         kpkp233_ts1                   log                factor     3.0875742458E+00     1.0000000000E-10     1.0000000000E+02                    kp     1.0000000000E+00     0.0000000000E+00          1
         kpkp234_ts1                   log                factor     9.8419635702E+03     1.0000000000E-10     1.0000000000E+02                    kp     1.0000000000E+00     0.0000000000E+00          1
         kpkp245_br1                   log                factor     1.5120831157E-01     1.0000000000E-10     1.0000000000E+02                    kp     1.0000000000E+00     0.0000000000E+00          1
         kpkp246_br1                   log                factor     1.1402638284E-01     1.0000000000E-10     1.0000000000E+02                    kp     1.0000000000E+00     0.0000000000E+00          1
         kpkp247_ts1                   log                factor     9.6102596620E+00     1.0000000000E-10     1.0000000000E+02                    kp     1.0000000000E+00     0.0000000000E+00          1
         kpkp248_ts1                   log                factor     2.0048133108E+00     1.0000000000E-10     1.0000000000E+02                    kp     1.0000000000E+00     0.0000000000E+00          1
         kpkp249_ts1                   log                factor     1.0615743823E+03     1.0000000000E-10     1.0000000000E+02                    kp     1.0000000000E+00     0.0000000000E+00          1
         kpkp250_ts1                   log                factor     6.5611567767E+01     1.0000000000E-10     1.0000000000E+02                    kp     1.0000000000E+00     0.0000000000E+00          1
         kpkp251_ts1                   log                factor     1.4353178795E+04     1.0000000000E-10     1.0000000000E+02                    kp     1.0000000000E+00     0.0000000000E+00          1
         kpkp252_ts1                   log                factor     1.9397740308E+02     1.0000000000E-10     1.0000000000E+02                    kp     1.0000000000E+00     0.0000000000E+00          1
         kpkp254_br1                   log                factor     3.3801909637E-03     1.0000000000E-10     1.0000000000E+02                    kp     1.0000000000E+00     0.0000000000E+00          1
         kpkp257_ts1                   log                factor     9.2433031984E-01     1.0000000000E-10     1.0000000000E+02                    kp     1.0000000000E+00     0.0000000000E+00          1
         kpkp258_br1                   log                factor     6.1065525056E+00     1.0000000000E-10     1.0000000000E+02                    kp     1.0000000000E+00     0.0000000000E+00          1
         kpkp259_br1                   log                factor     1.4069728925E-02     1.0000000000E-10     1.0000000000E+02                    kp     1.0000000000E+00     0.0000000000E+00          1
         kpkp260_br1                   log                factor     4.7142975385E-01     1.0000000000E-10     1.0000000000E+02                    kp     1.0000000000E+00     0.0000000000E+00          1
         kpkp261_br1                   log                factor     1.5284548318E+00     1.0000000000E-10     1.0000000000E+02                    kp     1.0000000000E+00     0.0000000000E+00          1
         kpkp262_ts1                   log                factor     1.6741190947E+02     1.0000000000E-10     1.0000000000E+02                    kp     1.0000000000E+00     0.0000000000E+00          1
         kpkp263_ts1                   log                factor     4.0067880042E+00     1.0000000000E-10     1.0000000000E+02                    kp     1.0000000000E+00     0.0000000000E+00          1
         kpkp264_ts1                   log                factor     1.1451019239E+07     1.0000000000E-10     1.0000000000E+02                    kp     1.0000000000E+00     0.0000000000E+00          1
         kpkp265_ts1                   log                factor     4.3287868204E+05     1.0000000000E-10     1.0000000000E+02                    kp     1.0000000000E+00     0.0000000000E+00          1
         kpkp266_ts1                   log                factor     5.6652170963E+04     1.0000000000E-10     1.0000000000E+02                    kp     1.0000000000E+00     0.0000000000E+00          1
         kpkp267_ts1                   log                factor     5.2897882117E+01     1.0000000000E-10     1.0000000000E+02                    kp     1.0000000000E+00     0.0000000000E+00          1
         kpkp268_ts1                   log                factor     1.8357868335E+01     1.0000000000E-10     1.0000000000E+02                    kp     1.0000000000E+00     0.0000000000E+00          1
         kpkp269_ts1                   log                factor     6.7003616531E+04     1.0000000000E-10     1.0000000000E+02                    kp     1.0000000000E+00     0.0000000000E+00          1
         kpkp270_ts1                   log                factor     1.7021850965E+01     1.0000000000E-10     1.0000000000E+02                    kp     1.0000000000E+00     0.0000000000E+00          1
         kpkp271_ts1                   log                factor     8.2906285316E-01     1.0000000000E-10     1.0000000000E+02                    kp     1.0000000000E+00     0.0000000000E+00          1
         kpkp272_ts1                   log                factor     1.7770663504E+08     1.0000000000E-10     1.0000000000E+02                    kp     1.0000000000E+00     0.0000000000E+00          1
         kpkp273_br1                   log                factor     1.7177644409E-04     1.0000000000E-10     1.0000000000E+02                    kp     1.0000000000E+00     0.0000000000E+00          1
         kpkp274_br1                   log                factor     3.8233108606E+01     1.0000000000E-10     1.0000000000E+02                    kp     1.0000000000E+00     0.0000000000E+00          1
         kpkp275_ts1                   log                factor     6.7013509706E+00     1.0000000000E-10     1.0000000000E+02                    kp     1.0000000000E+00     0.0000000000E+00          1
         kpkp276_ts1                   log                factor     8.9086101006E+03     1.0000000000E-10     1.0000000000E+02                    kp     1.0000000000E+00     0.0000000000E+00          1
         kpkp277_ts1                   log                factor     1.3118417796E+01     1.0000000000E-10     1.0000000000E+02                    kp     1.0000000000E+00     0.0000000000E+00          1
         kpkp278_ts1                   log                factor     1.9431052612E+02     1.0000000000E-10     1.0000000000E+02                    kp     1.0000000000E+00     0.0000000000E+00          1
         kpkp279_ts1                   log                factor     3.6896903802E+05     1.0000000000E-10     1.0000000000E+02                    kp     1.0000000000E+00     0.0000000000E+00          1
         kpkp280_ts1                   log                factor     2.7044492914E-05     1.0000000000E-10     1.0000000000E+02                    kp     1.0000000000E+00     0.0000000000E+00          1
         kpkp281_ts1                   log                factor     1.1257965065E-01     1.0000000000E-10     1.0000000000E+02                    kp     1.0000000000E+00     0.0000000000E+00          1
         kpkp282_ts1                   log                factor     3.4238734657E+02     1.0000000000E-10     1.0000000000E+02                    kp     1.0000000000E+00     0.0000000000E+00          1
         kpkp283_ts1                   log                factor     3.1101230856E+00     1.0000000000E-10     1.0000000000E+02                    kp     1.0000000000E+00     0.0000000000E+00          1
         kpkp284_ts1                   log                factor     3.6607602804E-03     1.0000000000E-10     1.0000000000E+02                    kp     1.0000000000E+00     0.0000000000E+00          1
         kpkp285_ts1                   log                factor     7.4458704749E+04     1.0000000000E-10     1.0000000000E+02                    kp     1.0000000000E+00     0.0000000000E+00          1
         kpkp286_ts1                   log                factor     8.6693105524E-01     1.0000000000E-10     1.0000000000E+02                    kp     1.0000000000E+00     0.0000000000E+00          1
         kpkp287_ts1                   log                factor     5.1200327925E+05     1.0000000000E-10     1.0000000000E+02                    kp     1.0000000000E+00     0.0000000000E+00          1
         kpkp288_ts1                   log                factor     1.3814899901E-04     1.0000000000E-10     1.0000000000E+02                    kp     1.0000000000E+00     0.0000000000E+00          1
         kpkp289_ts1                   log                factor     1.2407397848E+01     1.0000000000E-10     1.0000000000E+02                    kp     1.0000000000E+00     0.0000000000E+00          1
         kpkp290_ts1                   log                factor     4.6550583870E+06     1.0000000000E-10     1.0000000000E+02                    kp     1.0000000000E+00     0.0000000000E+00          1
         kpkp291_ts1                   log                factor     3.4351289700E+07     1.0000000000E-10     1.0000000000E+02                    kp     1.0000000000E+00     0.0000000000E+00          1
         kpkp292_ts1                   log                factor     3.5781328467E+03     1.0000000000E-10     1.0000000000E+02                    kp     1.0000000000E+00     0.0000000000E+00          1
         kpkp293_ts1                   log                factor     7.2307125123E+03     1.0000000000E-10     1.0000000000E+02                    kp     1.0000000000E+00     0.0000000000E+00          1
         kpkp294_ts1                   log                factor     1.8836887615E+08     1.0000000000E-10     1.0000000000E+02                    kp     1.0000000000E+00     0.0000000000E+00          1
         kpkp295_ts1                   log                factor     2.4171104169E-02     1.0000000000E-10     1.0000000000E+02                    kp     1.0000000000E+00     0.0000000000E+00          1
         kpkp296_ts1                   log                factor     2.8881638046E+06     1.0000000000E-10     1.0000000000E+02                    kp     1.0000000000E+00     0.0000000000E+00          1