pcf
* control data
             restart          estimation
      2710      1224         4         0         9         0
         3         2              single               point         1         0         0          noobsreref
   2.000000E+01  -3.000000E+00   3.000000E-01   1.000000E-02       -10       999          lamforgive        noderforgive
   1.000000E+01   1.000000E+01   1.000000E-03         0         0
   1.000000E-01         1   1.100000E+00               noaui          nosenreuse        noboundscale
         0   1.000000E-02         3         3   1.000000E-02         3   0.000000E+00         1  -1.000000E+00
         0         0         0         0             jcosave          verboserec          jcosaveitn          reisaveitn          parsaveitn        noparsaverun
* singular value decomposition
1
1715  5.000000e-007
1
* parameter groups
kz              relative     1.0000000000E-02  0.0              always_3     2.0000000000E+00             parabolic     1.0000000000E-05     5.0000000000E-01               smaller
                  kp              relative     1.0000000000E-02  0.0              always_3     2.0000000000E+00             parabolic     1.0000000000E-05     5.0000000000E-01               smaller
                rech              relative     1.0000000000E-02  0.0              always_3     2.0000000000E+00             parabolic     1.0000000000E-05     5.0000000000E-01               smaller
                cond              relative     1.0000000000E-02  0.0              always_3     2.0000000000E+00             parabolic     1.0000000000E-05     5.0000000000E-01               smaller
* parameter data
sfrc                   log                factor     2.4511438611E+04     1.0000000000E-10     1.0000000000E+10                  cond     1.0000000000E+00     0.0000000000E+00          1
                ghbc                   log                factor     1.8568076747E+09     1.0000000000E-10     1.0000000000E+10                  cond     1.0000000000E+00     0.0000000000E+00          1
          ratio_sgab                 fixed                factor     1.0000000000E+00     1.0000000000E+00     1.0000000000E+10                  rech     1.0000000000E+00     0.0000000000E+00          1
          ratio_sgbc                 fixed                factor     1.0000000000E+00     7.0000000000E-01     1.0000000000E+10                  rech     1.0000000000E+00     0.0000000000E+00          1
          ratio_sgcd                 fixed                factor     1.0000000000E+00     1.0000000000E+00     1.0000000000E+10                  rech     1.0000000000E+00     0.0000000000E+00          1
        rch_mult_sgd                   log                factor     1.1299388407E+05     1.0000000000E-10     1.0000000000E+10                  rech     1.0000000000E+00     0.0000000000E+00          1
          kpkp89_mc1                   log                factor     9.8060927742E+03     1.0000000000E-10     1.0000000000E+02                    kp     1.0000000000E+00     0.0000000000E+00          1
          kpkp90_mc1                   log                factor     6.0580874088E-04     1.0000000000E-10     1.0000000000E+02                    kp     1.0000000000E+00     0.0000000000E+00          1
         kpkp106_mc1                   log                factor     9.1404231100E-03     1.0000000000E-10     1.0000000000E+02                    kp     1.0000000000E+00     0.0000000000E+00          1
         kpkp107_mc1                   log                factor     9.3543910224E+01     1.0000000000E-10     1.0000000000E+02                    kp     1.0000000000E+00     0.0000000000E+00          1
         kpkp108_mc1                   log                factor     4.2879823773E+05     1.0000000000E-10     1.0000000000E+02                    kp     1.0000000000E+00     0.0000000000E+00          1
         kpkp122_mc1                   log                factor     3.4971014281E+05     1.0000000000E-10     1.0000000000E+02                    kp     1.0000000000E+00     0.0000000000E+00          1
         kpkp123_mc1                   log                factor     9.6334841076E+01     1.0000000000E-10     1.0000000000E+02                    kp     1.0000000000E+00     0.0000000000E+00          1
         kpkp124_mc1                   log                factor     6.5888310820E-02     1.0000000000E-10     1.0000000000E+02                    kp     1.0000000000E+00     0.0000000000E+00          1
         kpkp125_mc1                   log                factor     2.9172673361E+00     1.0000000000E-10     1.0000000000E+02                    kp     1.0000000000E+00     0.0000000000E+00          1
         kpkp126_mc1                   log                factor     4.5608103784E+02     1.0000000000E-10     1.0000000000E+02                    kp     1.0000000000E+00     0.0000000000E+00          1
         kpkp139_mc1                   log                factor     2.8672840525E+02     1.0000000000E-10     1.0000000000E+02                    kp     1.0000000000E+00     0.0000000000E+00          1
         kpkp140_bh1                   log                factor     2.8286016023E-02     1.0000000000E-10     1.0000000000E+02                    kp     1.0000000000E+00     0.0000000000E+00          1
         kpkp141_mc1                   log                factor     3.2604996718E-07     1.0000000000E-10     1.0000000000E+02                    kp     1.0000000000E+00     0.0000000000E+00          1
         kpkp142_mc1                   log                factor     1.8751072490E-01     1.0000000000E-10     1.0000000000E+02                    kp     1.0000000000E+00     0.0000000000E+00          1
         kpkp143_br1                   log                factor     8.0574382723E-01     1.0000000000E-10     1.0000000000E+02                    kp     1.0000000000E+00     0.0000000000E+00          1
         kpkp144_br1                   log                factor     5.3998820048E+02     1.0000000000E-10     1.0000000000E+02                    kp     1.0000000000E+00     0.0000000000E+00          1
         kpkp156_mc1                   log                factor     6.3968004998E-03     1.0000000000E-10     1.0000000000E+02                    kp     1.0000000000E+00     0.0000000000E+00          1
         kpkp157_mc1                   log                factor     8.2127790686E-07     1.0000000000E-10     1.0000000000E+02                    kp     1.0000000000E+00     0.0000000000E+00          1
         kpkp158_tn1                   log                factor     8.4226384460E-01     1.0000000000E-10     1.0000000000E+02                    kp     1.0000000000E+00     0.0000000000E+00          1
         kpkp159_br1                   log                factor     3.1953837496E-01     1.0000000000E-10     1.0000000000E+02                    kp     1.0000000000E+00     0.0000000000E+00          1
         kpkp160_br1                   log                factor     2.3990063717E+00     1.0000000000E-10     1.0000000000E+02                    kp     1.0000000000E+00     0.0000000000E+00          1
         kpkp161_br1                   log                factor     1.6419868129E-02     1.0000000000E-10     1.0000000000E+02                    kp     1.0000000000E+00     0.0000000000E+00          1
         kpkp173_mc1                   log                factor     5.6231417169E-01     1.0000000000E-10     1.0000000000E+02                    kp     1.0000000000E+00     0.0000000000E+00          1
         kpkp174_mc1                   log                factor     4.5480242787E+00     1.0000000000E-10     1.0000000000E+02                    kp     1.0000000000E+00     0.0000000000E+00          1
         kpkp175_tn1                   log                factor     1.4769260449E+02     1.0000000000E-10     1.0000000000E+02                    kp     1.0000000000E+00     0.0000000000E+00          1
         kpkp176_br1                   log                factor     8.9728638509E+06     1.0000000000E-10     1.0000000000E+02                    kp     1.0000000000E+00     0.0000000000E+00          1
         kpkp177_br1                   log                factor     4.6125146977E+01     1.0000000000E-10     1.0000000000E+02                    kp     1.0000000000E+00     0.0000000000E+00          1
         kpkp191_mc1                   log                factor     1.2148937822E+00     1.0000000000E-10     1.0000000000E+02                    kp     1.0000000000E+00     0.0000000000E+00          1
         kpkp192_tn1                   log                factor     5.1642510580E-02     1.0000000000E-10     1.0000000000E+02                    kp     1.0000000000E+00     0.0000000000E+00          1
         kpkp193_br1                   log                factor     4.6704605504E+06     1.0000000000E-10     1.0000000000E+02                    kp     1.0000000000E+00     0.0000000000E+00          1
         kpkp202_ts1                   log                factor     1.2891510542E+03     1.0000000000E-10     1.0000000000E+02                    kp     1.0000000000E+00     0.0000000000E+00          1
         kpkp203_mc1                   log                factor     2.6602392809E+00     1.0000000000E-10     1.0000000000E+02                    kp     1.0000000000E+00     0.0000000000E+00          1
         kpkp204_br1                   log                factor     2.8323849754E+01     1.0000000000E-10     1.0000000000E+02                    kp     1.0000000000E+00     0.0000000000E+00          1
         kpkp205_mc1                   log                factor     2.2717532004E+02     1.0000000000E-10     1.0000000000E+02                    kp     1.0000000000E+00     0.0000000000E+00          1
         kpkp206_mc1                   log                factor     2.4353573272E+03     1.0000000000E-10     1.0000000000E+02                    kp     1.0000000000E+00     0.0000000000E+00          1
         kpkp207_mc1                   log                factor     7.1392984471E+00     1.0000000000E-10     1.0000000000E+02                    kp     1.0000000000E+00     0.0000000000E+00          1
         kpkp208_tn1                   log                factor     5.7804822861E-03     1.0000000000E-10     1.0000000000E+02                    kp     1.0000000000E+00     0.0000000000E+00          1
         kpkp209_ks1                   log                factor     9.3689228303E+05     1.0000000000E-10     1.0000000000E+02                    kp     1.0000000000E+00     0.0000000000E+00          1
         kpkp217_ts1                   log                factor     8.0236467547E-02     1.0000000000E-10     1.0000000000E+02                    kp     1.0000000000E+00     0.0000000000E+00          1
         kpkp218_ts1                   log                factor     2.3205136723E-03     1.0000000000E-10     1.0000000000E+02                    kp     1.0000000000E+00     0.0000000000E+00          1
         kpkp219_ts1                   log                factor     6.6572816615E-02     1.0000000000E-10     1.0000000000E+02                    kp     1.0000000000E+00     0.0000000000E+00          1
         kpkp220_br1                   log                factor     2.1292113643E-01     1.0000000000E-10     1.0000000000E+02                    kp     1.0000000000E+00     0.0000000000E+00          1
         kpkp221_br1                   log                factor     1.3694289823E-04     1.0000000000E-10     1.0000000000E+02                    kp     1.0000000000E+00     0.0000000000E+00          1
         kpkp222_br1                   log                factor     5.4003923894E-05     1.0000000000E-10     1.0000000000E+02                    kp     1.0000000000E+00     0.0000000000E+00          1
         kpkp223_br1                   log                factor     3.3115444783E+01     1.0000000000E-10     1.0000000000E+02                    kp     1.0000000000E+00     0.0000000000E+00          1
         kpkp224_ks1                   log                factor     6.4782355564E-02     1.0000000000E-10     1.0000000000E+02                    kp     1.0000000000E+00     0.0000000000E+00          1
         kpkp225_ks1                   log                factor     5.5332021730E+05     1.0000000000E-10     1.0000000000E+02                    kp     1.0000000000E+00     0.0000000000E+00          1
         kpkp235_br1                   log                factor     2.2284652142E+00     1.0000000000E-10     1.0000000000E+02                    kp     1.0000000000E+00     0.0000000000E+00          1
         kpkp236_ts1                   log                factor     1.1614641504E-01     1.0000000000E-10     1.0000000000E+02                    kp     1.0000000000E+00     0.0000000000E+00          1
         kpkp237_br1                   log                factor     6.9007774198E-01     1.0000000000E-10     1.0000000000E+02                    kp     1.0000000000E+00     0.0000000000E+00          1
         kpkp238_br1                   log                factor     6.2626165157E+02     1.0000000000E-10     1.0000000000E+02                    kp     1.0000000000E+00     0.0000000000E+00          1
         kpkp239_br1                   log                factor     1.3654209274E-01     1.0000000000E-10     1.0000000000E+02                    kp     1.0000000000E+00     0.0000000000E+00          1
         kpkp240_br1                   log                factor     8.9225680269E+03     1.0000000000E-10     1.0000000000E+02                    kp     1.0000000000E+00     0.0000000000E+00          1
         kpkp253_br1                   log                factor     9.4491296885E+02     1.0000000000E-10     1.0000000000E+02                    kp     1.0000000000E+00     0.0000000000E+00          1
         kpkp255_br1                   log                factor     4.1737512694E+02     1.0000000000E-10     1.0000000000E+02                    kp     1.0000000000E+00     0.0000000000E+00          1
         kpkp256_br1                   log                factor     1.5103945139E+00     1.0000000000E-10     1.0000000000E+02                    kp     1.0000000000E+00     0.0000000000E+00          1
         kpkp162_br1                   log                factor     1.2798517221E+01     1.0000000000E-10     1.0000000000E+02                    kp     1.0000000000E+00     0.0000000000E+00          1
         kpkp178_br1                   log                factor     2.5852797486E+01     1.0000000000E-10     1.0000000000E+02                    kp     1.0000000000E+00     0.0000000000E+00          1
         kpkp179_br1                   log                factor     6.1343970998E+02     1.0000000000E-10     1.0000000000E+02                    kp     1.0000000000E+00     0.0000000000E+00          1
         kpkp194_br1                   log                factor     9.5209682576E-03     1.0000000000E-10     1.0000000000E+02                    kp     1.0000000000E+00     0.0000000000E+00          1
         kpkp195_br1                   log                factor     4.7180657499E-01     1.0000000000E-10     1.0000000000E+02                    kp     1.0000000000E+00     0.0000000000E+00          1
         kpkp196_br1                   log                factor     1.7571833918E-06     1.0000000000E-10     1.0000000000E+02                    kp     1.0000000000E+00     0.0000000000E+00          1
         kpkp210_br1                   log                factor     4.8658425818E-03     1.0000000000E-10     1.0000000000E+02                    kp     1.0000000000E+00     0.0000000000E+00          1
         kpkp211_br1                   log                factor     1.8551299358E-01     1.0000000000E-10     1.0000000000E+02                    kp     1.0000000000E+00     0.0000000000E+00          1
         kpkp212_br1                   log                factor     6.9479784193E+06     1.0000000000E-10     1.0000000000E+02                    kp     1.0000000000E+00     0.0000000000E+00          1
         kpkp226_br1                   log                factor     2.1003224803E+01     1.0000000000E-10     1.0000000000E+02                    kp     1.0000000000E+00     0.0000000000E+00          1
         kpkp227_br1                   log                factor     8.9931969569E-03     1.0000000000E-10     1.0000000000E+02                    kp     1.0000000000E+00     0.0000000000E+00          1
         kpkp228_br1                   log                factor     2.2976996122E+04     1.0000000000E-10     1.0000000000E+02                    kp     1.0000000000E+00     0.0000000000E+00          1
         kpkp241_br1                   log                factor     9.0992952387E+02     1.0000000000E-10     1.0000000000E+02                    kp     1.0000000000E+00     0.0000000000E+00          1
         kpkp242_br1                   log                factor     5.5487847056E-01     1.0000000000E-10     1.0000000000E+02                    kp     1.0000000000E+00     0.0000000000E+00          1
         kpkp243_br1                   log                factor     2.0262362435E+01     1.0000000000E-10     1.0000000000E+02                    kp     1.0000000000E+00     0.0000000000E+00          1
         kpkp180_br1                   log                factor     9.2148362645E-02     1.0000000000E-10     1.0000000000E+02                    kp     1.0000000000E+00     0.0000000000E+00          1
         kpkp197_br1                   log                factor     2.5747394034E+00     1.0000000000E-10     1.0000000000E+02                    kp     1.0000000000E+00     0.0000000000E+00          1
         kpkp198_br1                   log                factor     4.5830128299E+00     1.0000000000E-10     1.0000000000E+02                    kp     1.0000000000E+00     0.0000000000E+00          1
         kpkp213_br1                   log                factor     2.9359004387E+02     1.0000000000E-10     1.0000000000E+02                    kp     1.0000000000E+00     0.0000000000E+00          1
         kpkp214_br1                   log                factor     1.6727565681E+01     1.0000000000E-10     1.0000000000E+02                    kp     1.0000000000E+00     0.0000000000E+00          1
         kpkp215_br1                   log                factor     3.1852104656E+02     1.0000000000E-10     1.0000000000E+02                    kp     1.0000000000E+00     0.0000000000E+00          1
         kpkp216_ts1                   log                factor     1.8324803529E+01     1.0000000000E-10     1.0000000000E+02                    kp     1.0000000000E+00     0.0000000000E+00          1
         kpkp229_br1                   log                factor     6.5799928791E+01     1.0000000000E-10     1.0000000000E+02                    kp     1.0000000000E+00     0.0000000000E+00          1
         kpkp230_br1                   log                factor     6.8592648342E-01     1.0000000000E-10     1.0000000000E+02                    kp     1.0000000000E+00     0.0000000000E+00          1
         kpkp231_ts1                   log                factor     1.4867493654E+01     1.0000000000E-10     1.0000000000E+02                    kp     1.0000000000E+00     0.0000000000E+00          1
         kpkp232_ts1                   log                factor     2.6340327912E+00     1.0000000000E-10     1.0000000000E+02                    kp     1.0000000000E+00     0.0000000000E+00          1
         kpkp233_ts1                   log                factor     1.4601277505E+05     1.0000000000E-10     1.0000000000E+02                    kp     1.0000000000E+00     0.0000000000E+00          1
         kpkp234_ts1                   log                factor     1.7256199684E-02     1.0000000000E-10     1.0000000000E+02                    kp     1.0000000000E+00     0.0000000000E+00          1
         kpkp245_br1                   log                factor     4.8819267755E-05     1.0000000000E-10     1.0000000000E+02                    kp     1.0000000000E+00     0.0000000000E+00          1
         kpkp246_br1                   log                factor     7.8498427494E-01     1.0000000000E-10     1.0000000000E+02                    kp     1.0000000000E+00     0.0000000000E+00          1
         kpkp247_ts1                   log                factor     8.8352326363E+02     1.0000000000E-10     1.0000000000E+02                    kp     1.0000000000E+00     0.0000000000E+00          1
         kpkp248_ts1                   log                factor     1.5100861022E-01     1.0000000000E-10     1.0000000000E+02                    kp     1.0000000000E+00     0.0000000000E+00          1
         kpkp249_ts1                   log                factor     2.9865747418E-03     1.0000000000E-10     1.0000000000E+02                    kp     1.0000000000E+00     0.0000000000E+00          1
         kpkp250_ts1                   log                factor     3.7962033067E+01     1.0000000000E-10     1.0000000000E+02                    kp     1.0000000000E+00     0.0000000000E+00          1
         kpkp251_ts1                   log                factor     5.8701771123E+04     1.0000000000E-10     1.0000000000E+02                    kp     1.0000000000E+00     0.0000000000E+00          1
         kpkp252_ts1                   log                factor     7.8212030305E+06     1.0000000000E-10     1.0000000000E+02                    kp     1.0000000000E+00     0.0000000000E+00          1
         kpkp254_br1                   log                factor     6.3029631124E+00     1.0000000000E-10     1.0000000000E+02                    kp     1.0000000000E+00     0.0000000000E+00          1
         kpkp257_ts1                   log                factor     4.9680166999E+00     1.0000000000E-10     1.0000000000E+02                    kp     1.0000000000E+00     0.0000000000E+00          1
         kpkp258_br1                   log                factor     3.8279566536E+01     1.0000000000E-10     1.0000000000E+02                    kp     1.0000000000E+00     0.0000000000E+00          1
         kpkp259_br1                   log                factor     2.0736043928E+09     1.0000000000E-10     1.0000000000E+02                    kp     1.0000000000E+00     0.0000000000E+00          1
         kpkp260_br1                   log                factor     8.6011540592E+02     1.0000000000E-10     1.0000000000E+02                    kp     1.0000000000E+00     0.0000000000E+00          1
         kpkp261_br1                   log                factor     1.5043268847E+01     1.0000000000E-10     1.0000000000E+02                    kp     1.0000000000E+00     0.0000000000E+00          1
         kpkp262_ts1                   log                factor     1.1825920007E+06     1.0000000000E-10     1.0000000000E+02                    kp     1.0000000000E+00     0.0000000000E+00          1
         kpkp263_ts1                   log                factor     7.6738636247E+02     1.0000000000E-10     1.0000000000E+02                    kp     1.0000000000E+00     0.0000000000E+00          1
         kpkp264_ts1                   log                factor     2.1769069215E+02     1.0000000000E-10     1.0000000000E+02                    kp     1.0000000000E+00     0.0000000000E+00          1
         kpkp265_ts1                   log                factor     5.2290891272E+00     1.0000000000E-10     1.0000000000E+02                    kp     1.0000000000E+00     0.0000000000E+00          1
         kpkp266_ts1                   log                factor     9.3241741004E+02     1.0000000000E-10     1.0000000000E+02                    kp     1.0000000000E+00     0.0000000000E+00          1
         kpkp267_ts1                   log                factor     3.9337588818E+01     1.0000000000E-10     1.0000000000E+02                    kp     1.0000000000E+00     0.0000000000E+00          1
         kpkp268_ts1                   log                factor     4.6912568481E+03     1.0000000000E-10     1.0000000000E+02                    kp     1.0000000000E+00     0.0000000000E+00          1
         kpkp269_ts1                   log                factor     1.2032642810E+01     1.0000000000E-10     1.0000000000E+02                    kp     1.0000000000E+00     0.0000000000E+00          1
         kpkp270_ts1                   log                factor     9.9380951526E-04     1.0000000000E-10     1.0000000000E+02                    kp     1.0000000000E+00     0.0000000000E+00          1
         kpkp271_ts1                   log                factor     2.1757318677E+01     1.0000000000E-10     1.0000000000E+02                    kp     1.0000000000E+00     0.0000000000E+00          1
         kpkp272_ts1                   log                factor     1.1221635916E-02     1.0000000000E-10     1.0000000000E+02                    kp     1.0000000000E+00     0.0000000000E+00          1
         kpkp273_br1                   log                factor     2.4683168095E+04     1.0000000000E-10     1.0000000000E+02                    kp     1.0000000000E+00     0.0000000000E+00          1
         kpkp274_br1                   log                factor     3.6814528727E+01     1.0000000000E-10     1.0000000000E+02                    kp     1.0000000000E+00     0.0000000000E+00          1
         kpkp275_ts1                   log                factor     1.1392719234E+06     1.0000000000E-10     1.0000000000E+02                    kp     1.0000000000E+00     0.0000000000E+00          1
         kpkp276_ts1                   log                factor     4.6165616296E-04     1.0000000000E-10     1.0000000000E+02                    kp     1.0000000000E+00     0.0000000000E+00          1
         kpkp277_ts1                   log                factor     6.0519369958E+05     1.0000000000E-10     1.0000000000E+02                    kp     1.0000000000E+00     0.0000000000E+00          1
         kpkp278_ts1                   log                factor     7.9315595890E+01     1.0000000000E-10     1.0000000000E+02                    kp     1.0000000000E+00     0.0000000000E+00          1
         kpkp279_ts1                   log                factor     2.5540682874E-03     1.0000000000E-10     1.0000000000E+02                    kp     1.0000000000E+00     0.0000000000E+00          1
         kpkp280_ts1                   log                factor     4.9804507100E+03     1.0000000000E-10     1.0000000000E+02                    kp     1.0000000000E+00     0.0000000000E+00          1
         kpkp281_ts1                   log                factor     3.3872318892E+02     1.0000000000E-10     1.0000000000E+02                    kp     1.0000000000E+00     0.0000000000E+00          1
         kpkp282_ts1                   log                factor     4.4088234855E+06     1.0000000000E-10     1.0000000000E+02                    kp     1.0000000000E+00     0.0000000000E+00          1
         kpkp283_ts1                   log                factor     4.6500452571E-01     1.0000000000E-10     1.0000000000E+02                    kp     1.0000000000E+00     0.0000000000E+00          1
         kpkp284_ts1                   log                factor     5.6310645672E+01     1.0000000000E-10     1.0000000000E+02                    kp     1.0000000000E+00     0.0000000000E+00          1
         kpkp285_ts1                   log                factor     1.3612832231E+05     1.0000000000E-10     1.0000000000E+02                    kp     1.0000000000E+00     0.0000000000E+00          1
         kpkp286_ts1                   log                factor     2.0083746560E+04     1.0000000000E-10     1.0000000000E+02                    kp     1.0000000000E+00     0.0000000000E+00          1
         kpkp287_ts1                   log                factor     1.3297678590E+01     1.0000000000E-10     1.0000000000E+02                    kp     1.0000000000E+00     0.0000000000E+00          1
         kpkp288_ts1                   log                factor     1.9403190942E+01     1.0000000000E-10     1.0000000000E+02                    kp     1.0000000000E+00     0.0000000000E+00          1
         kpkp289_ts1                   log                factor     3.8395642032E-01     1.0000000000E-10     1.0000000000E+02                    kp     1.0000000000E+00     0.0000000000E+00          1
         kpkp290_ts1                   log                factor     8.1955156613E+03     1.0000000000E-10     1.0000000000E+02                    kp     1.0000000000E+00     0.0000000000E+00          1
         kpkp291_ts1                   log                factor     1.2276003761E-01     1.0000000000E-10     1.0000000000E+02                    kp     1.0000000000E+00     0.0000000000E+00          1
         kpkp292_ts1                   log                factor     1.8551543507E+05     1.0000000000E-10     1.0000000000E+02                    kp     1.0000000000E+00     0.0000000000E+00          1
         kpkp293_ts1                   log                factor     6.7649328576E+01     1.0000000000E-10     1.0000000000E+02                    kp     1.0000000000E+00     0.0000000000E+00          1
         kpkp294_ts1                   log                factor     1.7111174082E+00     1.0000000000E-10     1.0000000000E+02                    kp     1.0000000000E+00     0.0000000000E+00          1
         kpkp295_ts1                   log                factor     4.6872950259E+03     1.0000000000E-10     1.0000000000E+02                    kp     1.0000000000E+00     0.0000000000E+00          1
         kpkp296_ts1                   log                factor     2.4367272730E-02     1.0000000000E-10     1.0000000000E+02                    kp     1.0000000000E+00     0.0000000000E+00          1