pcf
* control data
             restart          estimation
      2710      1224         4         0         9         0
         3         2              single               point         1         0         0            noobsref
   2.000000E+01  -3.000000E+00   3.000000E-01   1.000000E-02       -10       999          lamforgive        noderforgive
   1.000000E+01   1.000000E+01   1.000000E-03         0         0
   1.000000E-01         1   1.100000E+00               noaui          nosenreuse        noboundscale
         0   1.000000E-02         3         3   1.000000E-02         3   0.000000E+00         1  -1.000000E+00
         0         0         0         0             jcosave          verboserec          jcosaveitn          reisaveitn          parsaveitn        noparsaverun
* singular value decomposition
1
1715  5.000000e-007
1
* parameter groups
                   kz              relative    1.000000E-02  0              always_3    2.000000E+00             parabolic    1.000000E-05    5.000000E-01               smaller
                   kp              relative    1.000000E-02  0              always_3    2.000000E+00             parabolic    1.000000E-05    5.000000E-01               smaller
                 rech              relative    1.000000E-02  0              always_3    2.000000E+00             parabolic    1.000000E-05    5.000000E-01               smaller
                 cond              relative    1.000000E-02  0              always_3    2.000000E+00             parabolic    1.000000E-05    5.000000E-01               smaller
* parameter data
                 sfrc                   log                factor    2.263316E+01    1.000000E-10    1.000000E+10                  cond    1.000000E+00    0.000000E+00          1
                 ghbc                   log                factor    6.904480E-07    1.000000E-10    1.000000E+10                  cond    1.000000E+00    0.000000E+00          1
           ratio_sgab                 fixed                factor    1.000000E+00    1.000000E+00    1.000000E+10                  rech    1.000000E+00    0.000000E+00          1
           ratio_sgbc                 fixed                factor    1.000000E+00    7.000000E-01    1.000000E+10                  rech    1.000000E+00    0.000000E+00          1
           ratio_sgcd                 fixed                factor    1.000000E+00    1.000000E+00    1.000000E+10                  rech    1.000000E+00    0.000000E+00          1
         rch_mult_sgd                   log                factor    4.678349E+06    1.000000E-10    1.000000E+10                  rech    1.000000E+00    0.000000E+00          1
           kpkp89_mc1                   log                factor    2.432204E+02    1.000000E-10    1.000000E+02                    kp    1.000000E+00    0.000000E+00          1
           kpkp90_mc1                   log                factor    4.293079E-03    1.000000E-10    1.000000E+02                    kp    1.000000E+00    0.000000E+00          1
          kpkp106_mc1                   log                factor    2.308047E-06    1.000000E-10    1.000000E+02                    kp    1.000000E+00    0.000000E+00          1
          kpkp107_mc1                   log                factor    2.077782E-06    1.000000E-10    1.000000E+02                    kp    1.000000E+00    0.000000E+00          1
          kpkp108_mc1                   log                factor    1.653032E-02    1.000000E-10    1.000000E+02                    kp    1.000000E+00    0.000000E+00          1
          kpkp122_mc1                   log                factor    3.034465E+02    1.000000E-10    1.000000E+02                    kp    1.000000E+00    0.000000E+00          1
          kpkp123_mc1                   log                factor    7.984824E+04    1.000000E-10    1.000000E+02                    kp    1.000000E+00    0.000000E+00          1
          kpkp124_mc1                   log                factor    6.383113E+00    1.000000E-10    1.000000E+02                    kp    1.000000E+00    0.000000E+00          1
          kpkp125_mc1                   log                factor    2.158010E-01    1.000000E-10    1.000000E+02                    kp    1.000000E+00    0.000000E+00          1
          kpkp126_mc1                   log                factor    1.718817E+01    1.000000E-10    1.000000E+02                    kp    1.000000E+00    0.000000E+00          1
          kpkp139_mc1                   log                factor    2.617748E-01    1.000000E-10    1.000000E+02                    kp    1.000000E+00    0.000000E+00          1
          kpkp140_bh1                   log                factor    3.010454E+03    1.000000E-10    1.000000E+02                    kp    1.000000E+00    0.000000E+00          1
          kpkp141_mc1                   log                factor    1.838244E-01    1.000000E-10    1.000000E+02                    kp    1.000000E+00    0.000000E+00          1
          kpkp142_mc1                   log                factor    5.589251E+00    1.000000E-10    1.000000E+02                    kp    1.000000E+00    0.000000E+00          1
          kpkp143_br1                   log                factor    5.661804E-02    1.000000E-10    1.000000E+02                    kp    1.000000E+00    0.000000E+00          1
          kpkp144_br1                   log                factor    1.658178E-01    1.000000E-10    1.000000E+02                    kp    1.000000E+00    0.000000E+00          1
          kpkp156_mc1                   log                factor    2.167916E+00    1.000000E-10    1.000000E+02                    kp    1.000000E+00    0.000000E+00          1
          kpkp157_mc1                   log                factor    3.251522E+01    1.000000E-10    1.000000E+02                    kp    1.000000E+00    0.000000E+00          1
          kpkp158_tn1                   log                factor    5.655316E+00    1.000000E-10    1.000000E+02                    kp    1.000000E+00    0.000000E+00          1
          kpkp159_br1                   log                factor    7.229325E-02    1.000000E-10    1.000000E+02                    kp    1.000000E+00    0.000000E+00          1
          kpkp160_br1                   log                factor    2.549683E+05    1.000000E-10    1.000000E+02                    kp    1.000000E+00    0.000000E+00          1
          kpkp161_br1                   log                factor    2.069436E+01    1.000000E-10    1.000000E+02                    kp    1.000000E+00    0.000000E+00          1
          kpkp173_mc1                   log                factor    3.014266E-03    1.000000E-10    1.000000E+02                    kp    1.000000E+00    0.000000E+00          1
          kpkp174_mc1                   log                factor    5.375700E+02    1.000000E-10    1.000000E+02                    kp    1.000000E+00    0.000000E+00          1
          kpkp175_tn1                   log                factor    1.476362E+01    1.000000E-10    1.000000E+02                    kp    1.000000E+00    0.000000E+00          1
          kpkp176_br1                   log                factor    2.937752E+03    1.000000E-10    1.000000E+02                    kp    1.000000E+00    0.000000E+00          1
          kpkp177_br1                   log                factor    9.248024E+01    1.000000E-10    1.000000E+02                    kp    1.000000E+00    0.000000E+00          1
          kpkp191_mc1                   log                factor    2.811529E+07    1.000000E-10    1.000000E+02                    kp    1.000000E+00    0.000000E+00          1
          kpkp192_tn1                   log                factor    1.561466E+05    1.000000E-10    1.000000E+02                    kp    1.000000E+00    0.000000E+00          1
          kpkp193_br1                   log                factor    3.559476E+02    1.000000E-10    1.000000E+02                    kp    1.000000E+00    0.000000E+00          1
          kpkp202_ts1                   log                factor    1.914541E+01    1.000000E-10    1.000000E+02                    kp    1.000000E+00    0.000000E+00          1
          kpkp203_mc1                   log                factor    8.676267E+02    1.000000E-10    1.000000E+02                    kp    1.000000E+00    0.000000E+00          1
          kpkp204_br1                   log                factor    1.951546E+02    1.000000E-10    1.000000E+02                    kp    1.000000E+00    0.000000E+00          1
          kpkp205_mc1                   log                factor    2.290946E-07    1.000000E-10    1.000000E+02                    kp    1.000000E+00    0.000000E+00          1
          kpkp206_mc1                   log                factor    5.048297E-06    1.000000E-10    1.000000E+02                    kp    1.000000E+00    0.000000E+00          1
          kpkp207_mc1                   log                factor    4.359757E+01    1.000000E-10    1.000000E+02                    kp    1.000000E+00    0.000000E+00          1
          kpkp208_tn1                   log                factor    8.800172E+04    1.000000E-10    1.000000E+02                    kp    1.000000E+00    0.000000E+00          1
          kpkp209_ks1                   log                factor    3.073727E-01    1.000000E-10    1.000000E+02                    kp    1.000000E+00    0.000000E+00          1
          kpkp217_ts1                   log                factor    3.221435E+00    1.000000E-10    1.000000E+02                    kp    1.000000E+00    0.000000E+00          1
          kpkp218_ts1                   log                factor    5.315861E-03    1.000000E-10    1.000000E+02                    kp    1.000000E+00    0.000000E+00          1
          kpkp219_ts1                   log                factor    1.373020E+04    1.000000E-10    1.000000E+02                    kp    1.000000E+00    0.000000E+00          1
          kpkp220_br1                   log                factor    1.242473E+00    1.000000E-10    1.000000E+02                    kp    1.000000E+00    0.000000E+00          1
          kpkp221_br1                   log                factor    1.896414E-02    1.000000E-10    1.000000E+02                    kp    1.000000E+00    0.000000E+00          1
          kpkp222_br1                   log                factor    1.172165E-02    1.000000E-10    1.000000E+02                    kp    1.000000E+00    0.000000E+00          1
          kpkp223_br1                   log                factor    3.065294E+06    1.000000E-10    1.000000E+02                    kp    1.000000E+00    0.000000E+00          1
          kpkp224_ks1                   log                factor    5.699101E+07    1.000000E-10    1.000000E+02                    kp    1.000000E+00    0.000000E+00          1
          kpkp225_ks1                   log                factor    2.363222E+03    1.000000E-10    1.000000E+02                    kp    1.000000E+00    0.000000E+00          1
          kpkp235_br1                   log                factor    1.151208E+05    1.000000E-10    1.000000E+02                    kp    1.000000E+00    0.000000E+00          1
          kpkp236_ts1                   log                factor    9.875506E-02    1.000000E-10    1.000000E+02                    kp    1.000000E+00    0.000000E+00          1
          kpkp237_br1                   log                factor    6.441308E+01    1.000000E-10    1.000000E+02                    kp    1.000000E+00    0.000000E+00          1
          kpkp238_br1                   log                factor    9.645947E+02    1.000000E-10    1.000000E+02                    kp    1.000000E+00    0.000000E+00          1
          kpkp239_br1                   log                factor    1.994057E-01    1.000000E-10    1.000000E+02                    kp    1.000000E+00    0.000000E+00          1
          kpkp240_br1                   log                factor    6.728007E+00    1.000000E-10    1.000000E+02                    kp    1.000000E+00    0.000000E+00          1
          kpkp253_br1                   log                factor    2.898434E-01    1.000000E-10    1.000000E+02                    kp    1.000000E+00    0.000000E+00          1
          kpkp255_br1                   log                factor    4.210815E+03    1.000000E-10    1.000000E+02                    kp    1.000000E+00    0.000000E+00          1
          kpkp256_br1                   log                factor    5.518523E-04    1.000000E-10    1.000000E+02                    kp    1.000000E+00    0.000000E+00          1
          kpkp162_br1                   log                factor    3.814943E+00    1.000000E-10    1.000000E+02                    kp    1.000000E+00    0.000000E+00          1
          kpkp178_br1                   log                factor    3.297602E+01    1.000000E-10    1.000000E+02                    kp    1.000000E+00    0.000000E+00          1
          kpkp179_br1                   log                factor    2.620424E+00    1.000000E-10    1.000000E+02                    kp    1.000000E+00    0.000000E+00          1
          kpkp194_br1                   log                factor    1.324497E+04    1.000000E-10    1.000000E+02                    kp    1.000000E+00    0.000000E+00          1
          kpkp195_br1                   log                factor    6.104722E-04    1.000000E-10    1.000000E+02                    kp    1.000000E+00    0.000000E+00          1
          kpkp196_br1                   log                factor    2.161440E-04    1.000000E-10    1.000000E+02                    kp    1.000000E+00    0.000000E+00          1
          kpkp210_br1                   log                factor    4.497433E+00    1.000000E-10    1.000000E+02                    kp    1.000000E+00    0.000000E+00          1
          kpkp211_br1                   log                factor    2.521595E+03    1.000000E-10    1.000000E+02                    kp    1.000000E+00    0.000000E+00          1
          kpkp212_br1                   log                factor    5.007063E+02    1.000000E-10    1.000000E+02                    kp    1.000000E+00    0.000000E+00          1
          kpkp226_br1                   log                factor    1.337295E-01    1.000000E-10    1.000000E+02                    kp    1.000000E+00    0.000000E+00          1
          kpkp227_br1                   log                factor    3.545091E-05    1.000000E-10    1.000000E+02                    kp    1.000000E+00    0.000000E+00          1
          kpkp228_br1                   log                factor    3.789938E+03    1.000000E-10    1.000000E+02                    kp    1.000000E+00    0.000000E+00          1
          kpkp241_br1                   log                factor    1.733259E-04    1.000000E-10    1.000000E+02                    kp    1.000000E+00    0.000000E+00          1
          kpkp242_br1                   log                factor    2.817449E+01    1.000000E-10    1.000000E+02                    kp    1.000000E+00    0.000000E+00          1
          kpkp243_br1                   log                factor    8.489571E-01    1.000000E-10    1.000000E+02                    kp    1.000000E+00    0.000000E+00          1
          kpkp180_br1                   log                factor    2.015898E+03    1.000000E-10    1.000000E+02                    kp    1.000000E+00    0.000000E+00          1
          kpkp197_br1                   log                factor    1.163059E-02    1.000000E-10    1.000000E+02                    kp    1.000000E+00    0.000000E+00          1
          kpkp198_br1                   log                factor    4.482362E-03    1.000000E-10    1.000000E+02                    kp    1.000000E+00    0.000000E+00          1
          kpkp213_br1                   log                factor    1.702683E+02    1.000000E-10    1.000000E+02                    kp    1.000000E+00    0.000000E+00          1
          kpkp214_br1                   log                factor    4.793591E-01    1.000000E-10    1.000000E+02                    kp    1.000000E+00    0.000000E+00          1
          kpkp215_br1                   log                factor    4.870932E-01    1.000000E-10    1.000000E+02                    kp    1.000000E+00    0.000000E+00          1
          kpkp216_ts1                   log                factor    3.695617E+03    1.000000E-10    1.000000E+02                    kp    1.000000E+00    0.000000E+00          1
          kpkp229_br1                   log                factor    3.718129E-06    1.000000E-10    1.000000E+02                    kp    1.000000E+00    0.000000E+00          1
          kpkp230_br1                   log                factor    2.320836E+04    1.000000E-10    1.000000E+02                    kp    1.000000E+00    0.000000E+00          1
          kpkp231_ts1                   log                factor    5.761831E-02    1.000000E-10    1.000000E+02                    kp    1.000000E+00    0.000000E+00          1
          kpkp232_ts1                   log                factor    1.200474E+02    1.000000E-10    1.000000E+02                    kp    1.000000E+00    0.000000E+00          1
          kpkp233_ts1                   log                factor    7.649485E+02    1.000000E-10    1.000000E+02                    kp    1.000000E+00    0.000000E+00          1
          kpkp234_ts1                   log                factor    1.379222E+00    1.000000E-10    1.000000E+02                    kp    1.000000E+00    0.000000E+00          1
          kpkp245_br1                   log                factor    5.440368E+07    1.000000E-10    1.000000E+02                    kp    1.000000E+00    0.000000E+00          1
          kpkp246_br1                   log                factor    7.785012E-02    1.000000E-10    1.000000E+02                    kp    1.000000E+00    0.000000E+00          1
          kpkp247_ts1                   log                factor    3.196033E+00    1.000000E-10    1.000000E+02                    kp    1.000000E+00    0.000000E+00          1
          kpkp248_ts1                   log                factor    8.541820E-01    1.000000E-10    1.000000E+02                    kp    1.000000E+00    0.000000E+00          1
          kpkp249_ts1                   log                factor    8.896508E-05    1.000000E-10    1.000000E+02                    kp    1.000000E+00    0.000000E+00          1
          kpkp250_ts1                   log                factor    3.427506E-04    1.000000E-10    1.000000E+02                    kp    1.000000E+00    0.000000E+00          1
          kpkp251_ts1                   log                factor    3.739387E+03    1.000000E-10    1.000000E+02                    kp    1.000000E+00    0.000000E+00          1
          kpkp252_ts1                   log                factor    2.965236E+02    1.000000E-10    1.000000E+02                    kp    1.000000E+00    0.000000E+00          1
          kpkp254_br1                   log                factor    8.110185E+07    1.000000E-10    1.000000E+02                    kp    1.000000E+00    0.000000E+00          1
          kpkp257_ts1                   log                factor    3.457040E+01    1.000000E-10    1.000000E+02                    kp    1.000000E+00    0.000000E+00          1
          kpkp258_br1                   log                factor    2.593358E-03    1.000000E-10    1.000000E+02                    kp    1.000000E+00    0.000000E+00          1
          kpkp259_br1                   log                factor    9.993222E+03    1.000000E-10    1.000000E+02                    kp    1.000000E+00    0.000000E+00          1
          kpkp260_br1                   log                factor    3.773928E+00    1.000000E-10    1.000000E+02                    kp    1.000000E+00    0.000000E+00          1
          kpkp261_br1                   log                factor    4.607102E+01    1.000000E-10    1.000000E+02                    kp    1.000000E+00    0.000000E+00          1
          kpkp262_ts1                   log                factor    9.464684E-02    1.000000E-10    1.000000E+02                    kp    1.000000E+00    0.000000E+00          1
          kpkp263_ts1                   log                factor    7.270027E-03    1.000000E-10    1.000000E+02                    kp    1.000000E+00    0.000000E+00          1
          kpkp264_ts1                   log                factor    8.153462E+05    1.000000E-10    1.000000E+02                    kp    1.000000E+00    0.000000E+00          1
          kpkp265_ts1                   log                factor    1.516858E+01    1.000000E-10    1.000000E+02                    kp    1.000000E+00    0.000000E+00          1
          kpkp266_ts1                   log                factor    1.448197E-01    1.000000E-10    1.000000E+02                    kp    1.000000E+00    0.000000E+00          1
          kpkp267_ts1                   log                factor    8.912269E+05    1.000000E-10    1.000000E+02                    kp    1.000000E+00    0.000000E+00          1
          kpkp268_ts1                   log                factor    4.963619E+00    1.000000E-10    1.000000E+02                    kp    1.000000E+00    0.000000E+00          1
          kpkp269_ts1                   log                factor    1.696095E+03    1.000000E-10    1.000000E+02                    kp    1.000000E+00    0.000000E+00          1
          kpkp270_ts1                   log                factor    4.401739E+03    1.000000E-10    1.000000E+02                    kp    1.000000E+00    0.000000E+00          1
          kpkp271_ts1                   log                factor    1.435286E+00    1.000000E-10    1.000000E+02                    kp    1.000000E+00    0.000000E+00          1
          kpkp272_ts1                   log                factor    2.052559E+04    1.000000E-10    1.000000E+02                    kp    1.000000E+00    0.000000E+00          1
          kpkp273_br1                   log                factor    2.231707E+07    1.000000E-10    1.000000E+02                    kp    1.000000E+00    0.000000E+00          1
          kpkp274_br1                   log                factor    8.845755E-03    1.000000E-10    1.000000E+02                    kp    1.000000E+00    0.000000E+00          1
          kpkp275_ts1                   log                factor    4.178756E+06    1.000000E-10    1.000000E+02                    kp    1.000000E+00    0.000000E+00          1
          kpkp276_ts1                   log                factor    2.095810E+02    1.000000E-10    1.000000E+02                    kp    1.000000E+00    0.000000E+00          1
          kpkp277_ts1                   log                factor    8.411034E-02    1.000000E-10    1.000000E+02                    kp    1.000000E+00    0.000000E+00          1
          kpkp278_ts1                   log                factor    1.926852E+03    1.000000E-10    1.000000E+02                    kp    1.000000E+00    0.000000E+00          1
          kpkp279_ts1                   log                factor    1.254244E+05    1.000000E-10    1.000000E+02                    kp    1.000000E+00    0.000000E+00          1
          kpkp280_ts1                   log                factor    1.662221E+02    1.000000E-10    1.000000E+02                    kp    1.000000E+00    0.000000E+00          1
          kpkp281_ts1                   log                factor    2.967923E-01    1.000000E-10    1.000000E+02                    kp    1.000000E+00    0.000000E+00          1
          kpkp282_ts1                   log                factor    7.109976E-02    1.000000E-10    1.000000E+02                    kp    1.000000E+00    0.000000E+00          1
          kpkp283_ts1                   log                factor    9.234008E+02    1.000000E-10    1.000000E+02                    kp    1.000000E+00    0.000000E+00          1
          kpkp284_ts1                   log                factor    1.074668E-06    1.000000E-10    1.000000E+02                    kp    1.000000E+00    0.000000E+00          1
          kpkp285_ts1                   log                factor    1.264874E+02    1.000000E-10    1.000000E+02                    kp    1.000000E+00    0.000000E+00          1
          kpkp286_ts1                   log                factor    1.536853E+04    1.000000E-10    1.000000E+02                    kp    1.000000E+00    0.000000E+00          1
          kpkp287_ts1                   log                factor    1.299239E+05    1.000000E-10    1.000000E+02                    kp    1.000000E+00    0.000000E+00          1
          kpkp288_ts1                   log                factor    1.457578E+02    1.000000E-10    1.000000E+02                    kp    1.000000E+00    0.000000E+00          1
          kpkp289_ts1                   log                factor    5.654647E-04    1.000000E-10    1.000000E+02                    kp    1.000000E+00    0.000000E+00          1
          kpkp290_ts1                   log                factor    1.838502E+01    1.000000E-10    1.000000E+02                    kp    1.000000E+00    0.000000E+00          1
          kpkp291_ts1                   log                factor    9.833375E+04    1.000000E-10    1.000000E+02                    kp    1.000000E+00    0.000000E+00          1
          kpkp292_ts1                   log                factor    5.658731E-04    1.000000E-10    1.000000E+02                    kp    1.000000E+00    0.000000E+00          1
          kpkp293_ts1                   log                factor    7.870200E+02    1.000000E-10    1.000000E+02                    kp    1.000000E+00    0.000000E+00          1
          kpkp294_ts1                   log                factor    9.829999E-01    1.000000E-10    1.000000E+02                    kp    1.000000E+00    0.000000E+00          1
          kpkp295_ts1                   log                factor    5.522953E-01    1.000000E-10    1.000000E+02                    kp    1.000000E+00    0.000000E+00          1
          kpkp296_ts1                   log                factor    3.612494E+02    1.000000E-10    1.000000E+02                    kp    1.000000E+00    0.000000E+00          1
          kpkp297_ts1                   log                factor    8.255953E-02    1.000000E-10    1.000000E+02                    kp    1.000000E+00    0.000000E+00          1
          kpkp298_ts1                   log                factor    1.318499E+02    1.000000E-10    1.000000E+02                    kp    1.000000E+00    0.000000E+00          1
          kpkp299_ts1                   log                factor    9.928726E+02    1.000000E-10    1.000000E+02                    kp    1.000000E+00    0.000000E+00          1
          kpkp300_ts1                   log                factor    2.373581E-04    1.000000E-10    1.000000E+02                    kp    1.000000E+00    0.000000E+00          1
          kpkp301_ts1                   log                factor    3.381858E-02    1.000000E-10    1.000000E+02                    kp    1.000000E+00    0.000000E+00          1
          kpkp302_ts1                   log                factor    8.232687E+08    1.000000E-10    1.000000E+02                    kp    1.000000E+00    0.000000E+00          1
          kpkp303_ts1                   log                factor    6.059756E+00    1.000000E-10    1.000000E+02                    kp    1.000000E+00    0.000000E+00          1
          kpkp304_ts1                   log                factor    8.093129E-02    1.000000E-10    1.000000E+02                    kp    1.000000E+00    0.000000E+00          1
          kpkp305_ts1                   log                factor    5.814198E-01    1.000000E-10    1.000000E+02                    kp    1.000000E+00    0.000000E+00          1
          kpkp306_ts1                   log                factor    1.371122E+03    1.000000E-10    1.000000E+02                    kp    1.000000E+00    0.000000E+00          1
          kpkp307_ts1                   log                factor    1.042888E+03    1.000000E-10    1.000000E+02                    kp    1.000000E+00    0.000000E+00          1
          kpkp308_ts1                   log                factor    2.191806E-03    1.000000E-10    1.000000E+02                    kp    1.000000E+00    0.000000E+00          1
          kpkp309_ts1                   log                factor    6.384564E+03    1.000000E-10    1.000000E+02                    kp    1.000000E+00    0.000000E+00          1
          kpkp310_ts1                   log                factor    5.771657E+01    1.000000E-10    1.000000E+02                    kp    1.000000E+00    0.000000E+00          1
          kpkp311_ts1                   log                factor    1.844561E+05    1.000000E-10    1.000000E+02                    kp    1.000000E+00    0.000000E+00          1
          kpkp312_ts1                   log                factor    3.575564E+04    1.000000E-10    1.000000E+02                    kp    1.000000E+00    0.000000E+00          1
          kpkp313_ts1                   log                factor    4.303002E+04    1.000000E-10    1.000000E+02                    kp    1.000000E+00    0.000000E+00          1
          kpkp314_ts1                   log                factor    4.404457E+04    1.000000E-10    1.000000E+02                    kp    1.000000E+00    0.000000E+00          1
          kpkp315_ts1                   log                factor    1.779156E+01    1.000000E-10    1.000000E+02                    kp    1.000000E+00    0.000000E+00          1