pcf
* control data
             restart          estimation
      2710      1224         4         0         9         0
         3         2              single               point         1         0         0          noobsreref
   2.000000E+01  -3.000000E+00   3.000000E-01   1.000000E-02       -10       999          lamforgive        noderforgive
   1.000000E+01   1.000000E+01   1.000000E-03         0         0
   1.000000E-01         1   1.100000E+00               noaui          nosenreuse        noboundscale
         0   1.000000E-02         3         3   1.000000E-02         3   0.000000E+00         1  -1.000000E+00
         0         0         0         0             jcosave          verboserec          jcosaveitn          reisaveitn          parsaveitn        noparsaverun
* singular value decomposition
1
1715  5.000000e-007
1
* parameter groups
kz                      relative              1.0000000000E-02       0.0  always_3              2.0000000000E+00       parabolic             1.0000000000E-05      5.0000000000E-01       smaller              
kp                      relative              1.0000000000E-02       0.0  always_3              2.0000000000E+00       parabolic             1.0000000000E-05      5.0000000000E-01       smaller              
rech                    relative              1.0000000000E-02       0.0  always_3              2.0000000000E+00       parabolic             1.0000000000E-05      5.0000000000E-01       smaller              
cond                    relative              1.0000000000E-02       0.0  always_3              2.0000000000E+00       parabolic             1.0000000000E-05      5.0000000000E-01       smaller
* parameter data
sfrc                   log                    factor                1.2361954998E+01      1.0000000000E-10      1.0000000000E+10       cond                  1.0000000000E+00      0.0000000000E+00      1          
ghbc                   log                    factor                3.2652971073E-08      1.0000000000E-10      1.0000000000E+10       cond                  1.0000000000E+00      0.0000000000E+00      1          
ratio_sgab             fixed                  factor                1.0000000000E+00      1.0000000000E+00      1.0000000000E+10       rech                  1.0000000000E+00      0.0000000000E+00      1          
ratio_sgbc             fixed                  factor                1.0000000000E+00      7.0000000000E-01      1.0000000000E+10       rech                  1.0000000000E+00      0.0000000000E+00      1          
ratio_sgcd             fixed                  factor                1.0000000000E+00      1.0000000000E+00      1.0000000000E+10       rech                  1.0000000000E+00      0.0000000000E+00      1          
rch_mult_sgd           log                    factor                4.2562610152E-10      1.0000000000E-10      1.0000000000E+10       rech                  1.0000000000E+00      0.0000000000E+00      1          
kpkp89_mc1             log                    factor                1.6431711305E+01      1.0000000000E-10      1.0000000000E+02       kp                    1.0000000000E+00      0.0000000000E+00      1          
kpkp90_mc1             log                    factor                2.4373132864E-01      1.0000000000E-10      1.0000000000E+02       kp                    1.0000000000E+00      0.0000000000E+00      1          
kpkp106_mc1            log                    factor                3.9986011022E+00      1.0000000000E-10      1.0000000000E+02       kp                    1.0000000000E+00      0.0000000000E+00      1          
kpkp107_mc1            log                    factor                5.6263882936E+06      1.0000000000E-10      1.0000000000E+02       kp                    1.0000000000E+00      0.0000000000E+00      1          
kpkp108_mc1            log                    factor                4.5631396692E-06      1.0000000000E-10      1.0000000000E+02       kp                    1.0000000000E+00      0.0000000000E+00      1          
kpkp122_mc1            log                    factor                1.4475107466E-01      1.0000000000E-10      1.0000000000E+02       kp                    1.0000000000E+00      0.0000000000E+00      1          
kpkp123_mc1            log                    factor                1.0203377890E-05      1.0000000000E-10      1.0000000000E+02       kp                    1.0000000000E+00      0.0000000000E+00      1          
kpkp124_mc1            log                    factor                5.7133291543E+04      1.0000000000E-10      1.0000000000E+02       kp                    1.0000000000E+00      0.0000000000E+00      1          
kpkp125_mc1            log                    factor                6.6531759940E+00      1.0000000000E-10      1.0000000000E+02       kp                    1.0000000000E+00      0.0000000000E+00      1          
kpkp126_mc1            log                    factor                6.0645919453E-03      1.0000000000E-10      1.0000000000E+02       kp                    1.0000000000E+00      0.0000000000E+00      1          
kpkp139_mc1            log                    factor                8.8679713560E+02      1.0000000000E-10      1.0000000000E+02       kp                    1.0000000000E+00      0.0000000000E+00      1          
kpkp140_bh1            log                    factor                1.7114145006E+03      1.0000000000E-10      1.0000000000E+02       kp                    1.0000000000E+00      0.0000000000E+00      1          
kpkp141_mc1            log                    factor                4.1035661864E-01      1.0000000000E-10      1.0000000000E+02       kp                    1.0000000000E+00      0.0000000000E+00      1          
kpkp142_mc1            log                    factor                3.2580539127E+00      1.0000000000E-10      1.0000000000E+02       kp                    1.0000000000E+00      0.0000000000E+00      1          
kpkp143_br1            log                    factor                4.4653169028E+03      1.0000000000E-10      1.0000000000E+02       kp                    1.0000000000E+00      0.0000000000E+00      1          
kpkp144_br1            log                    factor                7.9239699439E-01      1.0000000000E-10      1.0000000000E+02       kp                    1.0000000000E+00      0.0000000000E+00      1          
kpkp156_mc1            log                    factor                1.4875419485E-02      1.0000000000E-10      1.0000000000E+02       kp                    1.0000000000E+00      0.0000000000E+00      1          
kpkp157_mc1            log                    factor                1.7538766151E-01      1.0000000000E-10      1.0000000000E+02       kp                    1.0000000000E+00      0.0000000000E+00      1          
kpkp158_tn1            log                    factor                6.3969344038E+00      1.0000000000E-10      1.0000000000E+02       kp                    1.0000000000E+00      0.0000000000E+00      1          
kpkp159_br1            log                    factor                2.1225588477E+03      1.0000000000E-10      1.0000000000E+02       kp                    1.0000000000E+00      0.0000000000E+00      1          
kpkp160_br1            log                    factor                2.1228829599E+00      1.0000000000E-10      1.0000000000E+02       kp                    1.0000000000E+00      0.0000000000E+00      1          
kpkp161_br1            log                    factor                6.7688772395E+01      1.0000000000E-10      1.0000000000E+02       kp                    1.0000000000E+00      0.0000000000E+00      1          
kpkp173_mc1            log                    factor                3.5771939898E-05      1.0000000000E-10      1.0000000000E+02       kp                    1.0000000000E+00      0.0000000000E+00      1          
kpkp174_mc1            log                    factor                1.5670836793E+02      1.0000000000E-10      1.0000000000E+02       kp                    1.0000000000E+00      0.0000000000E+00      1          
kpkp175_tn1            log                    factor                2.3554220898E+00      1.0000000000E-10      1.0000000000E+02       kp                    1.0000000000E+00      0.0000000000E+00      1          
kpkp176_br1            log                    factor                7.6770586574E-01      1.0000000000E-10      1.0000000000E+02       kp                    1.0000000000E+00      0.0000000000E+00      1          
kpkp177_br1            log                    factor                1.4215340968E+00      1.0000000000E-10      1.0000000000E+02       kp                    1.0000000000E+00      0.0000000000E+00      1          
kpkp191_mc1            log                    factor                4.3205148595E+01      1.0000000000E-10      1.0000000000E+02       kp                    1.0000000000E+00      0.0000000000E+00      1          
kpkp192_tn1            log                    factor                2.2034302797E-02      1.0000000000E-10      1.0000000000E+02       kp                    1.0000000000E+00      0.0000000000E+00      1          
kpkp193_br1            log                    factor                8.0747047650E+00      1.0000000000E-10      1.0000000000E+02       kp                    1.0000000000E+00      0.0000000000E+00      1          
kpkp202_ts1            log                    factor                4.5036436830E+05      1.0000000000E-10      1.0000000000E+02       kp                    1.0000000000E+00      0.0000000000E+00      1          
kpkp203_mc1            log                    factor                6.5199439903E-04      1.0000000000E-10      1.0000000000E+02       kp                    1.0000000000E+00      0.0000000000E+00      1          
kpkp204_br1            log                    factor                5.7971908712E+04      1.0000000000E-10      1.0000000000E+02       kp                    1.0000000000E+00      0.0000000000E+00      1          
kpkp205_mc1            log                    factor                5.3383467808E-04      1.0000000000E-10      1.0000000000E+02       kp                    1.0000000000E+00      0.0000000000E+00      1          
kpkp206_mc1            log                    factor                3.7331075003E-01      1.0000000000E-10      1.0000000000E+02       kp                    1.0000000000E+00      0.0000000000E+00      1          
kpkp207_mc1            log                    factor                1.5116998337E-04      1.0000000000E-10      1.0000000000E+02       kp                    1.0000000000E+00      0.0000000000E+00      1          
kpkp208_tn1            log                    factor                4.3299329555E+02      1.0000000000E-10      1.0000000000E+02       kp                    1.0000000000E+00      0.0000000000E+00      1          
kpkp209_ks1            log                    factor                3.2272178715E+00      1.0000000000E-10      1.0000000000E+02       kp                    1.0000000000E+00      0.0000000000E+00      1          
kpkp217_ts1            log                    factor                1.2867479005E+04      1.0000000000E-10      1.0000000000E+02       kp                    1.0000000000E+00      0.0000000000E+00      1          
kpkp218_ts1            log                    factor                3.7951772939E+01      1.0000000000E-10      1.0000000000E+02       kp                    1.0000000000E+00      0.0000000000E+00      1          
kpkp219_ts1            log                    factor                5.1640472130E+04      1.0000000000E-10      1.0000000000E+02       kp                    1.0000000000E+00      0.0000000000E+00      1          
kpkp220_br1            log                    factor                7.8507473356E+03      1.0000000000E-10      1.0000000000E+02       kp                    1.0000000000E+00      0.0000000000E+00      1          
kpkp221_br1            log                    factor                2.8063345958E-03      1.0000000000E-10      1.0000000000E+02       kp                    1.0000000000E+00      0.0000000000E+00      1          
kpkp222_br1            log                    factor                2.7492465691E-04      1.0000000000E-10      1.0000000000E+02       kp                    1.0000000000E+00      0.0000000000E+00      1          
kpkp223_br1            log                    factor                4.6387263722E+01      1.0000000000E-10      1.0000000000E+02       kp                    1.0000000000E+00      0.0000000000E+00      1          
kpkp224_ks1            log                    factor                2.2120512153E-04      1.0000000000E-10      1.0000000000E+02       kp                    1.0000000000E+00      0.0000000000E+00      1          
kpkp225_ks1            log                    factor                1.6596426414E+02      1.0000000000E-10      1.0000000000E+02       kp                    1.0000000000E+00      0.0000000000E+00      1          
kpkp235_br1            log                    factor                3.0426188496E+03      1.0000000000E-10      1.0000000000E+02       kp                    1.0000000000E+00      0.0000000000E+00      1          
kpkp236_ts1            log                    factor                1.8217397565E+03      1.0000000000E-10      1.0000000000E+02       kp                    1.0000000000E+00      0.0000000000E+00      1          
kpkp237_br1            log                    factor                2.5351088391E+02      1.0000000000E-10      1.0000000000E+02       kp                    1.0000000000E+00      0.0000000000E+00      1          
kpkp238_br1            log                    factor                9.4077050779E-03      1.0000000000E-10      1.0000000000E+02       kp                    1.0000000000E+00      0.0000000000E+00      1          
kpkp239_br1            log                    factor                1.8892959799E+01      1.0000000000E-10      1.0000000000E+02       kp                    1.0000000000E+00      0.0000000000E+00      1          
kpkp240_br1            log                    factor                2.6677318106E+03      1.0000000000E-10      1.0000000000E+02       kp                    1.0000000000E+00      0.0000000000E+00      1          
kpkp253_br1            log                    factor                3.5831656169E-02      1.0000000000E-10      1.0000000000E+02       kp                    1.0000000000E+00      0.0000000000E+00      1          
kpkp255_br1            log                    factor                6.5074042198E-03      1.0000000000E-10      1.0000000000E+02       kp                    1.0000000000E+00      0.0000000000E+00      1          
kpkp256_br1            log                    factor                8.1887651052E+00      1.0000000000E-10      1.0000000000E+02       kp                    1.0000000000E+00      0.0000000000E+00      1          
kpkp162_br1            log                    factor                1.5502790357E+01      1.0000000000E-10      1.0000000000E+02       kp                    1.0000000000E+00      0.0000000000E+00      1          
kpkp178_br1            log                    factor                2.5780180615E+03      1.0000000000E-10      1.0000000000E+02       kp                    1.0000000000E+00      0.0000000000E+00      1          
kpkp179_br1            log                    factor                4.1462266054E+06      1.0000000000E-10      1.0000000000E+02       kp                    1.0000000000E+00      0.0000000000E+00      1          
kpkp194_br1            log                    factor                2.8952114394E-02      1.0000000000E-10      1.0000000000E+02       kp                    1.0000000000E+00      0.0000000000E+00      1          
kpkp195_br1            log                    factor                2.7660072448E-01      1.0000000000E-10      1.0000000000E+02       kp                    1.0000000000E+00      0.0000000000E+00      1          
kpkp196_br1            log                    factor                4.8363831580E+05      1.0000000000E-10      1.0000000000E+02       kp                    1.0000000000E+00      0.0000000000E+00      1          
kpkp210_br1            log                    factor                1.8317867352E-02      1.0000000000E-10      1.0000000000E+02       kp                    1.0000000000E+00      0.0000000000E+00      1          
kpkp211_br1            log                    factor                6.0614480089E-02      1.0000000000E-10      1.0000000000E+02       kp                    1.0000000000E+00      0.0000000000E+00      1          
kpkp212_br1            log                    factor                1.3416330399E+03      1.0000000000E-10      1.0000000000E+02       kp                    1.0000000000E+00      0.0000000000E+00      1          
kpkp226_br1            log                    factor                1.0871876541E+00      1.0000000000E-10      1.0000000000E+02       kp                    1.0000000000E+00      0.0000000000E+00      1          
kpkp227_br1            log                    factor                6.9135764933E+02      1.0000000000E-10      1.0000000000E+02       kp                    1.0000000000E+00      0.0000000000E+00      1          
kpkp228_br1            log                    factor                8.0803592147E-01      1.0000000000E-10      1.0000000000E+02       kp                    1.0000000000E+00      0.0000000000E+00      1          
kpkp241_br1            log                    factor                1.0750030076E+01      1.0000000000E-10      1.0000000000E+02       kp                    1.0000000000E+00      0.0000000000E+00      1          
kpkp242_br1            log                    factor                2.6419187209E-02      1.0000000000E-10      1.0000000000E+02       kp                    1.0000000000E+00      0.0000000000E+00      1          
kpkp243_br1            log                    factor                1.1610975401E+02      1.0000000000E-10      1.0000000000E+02       kp                    1.0000000000E+00      0.0000000000E+00      1          
kpkp180_br1            log                    factor                2.4659571714E+05      1.0000000000E-10      1.0000000000E+02       kp                    1.0000000000E+00      0.0000000000E+00      1          
kpkp197_br1            log                    factor                5.6481023971E-01      1.0000000000E-10      1.0000000000E+02       kp                    1.0000000000E+00      0.0000000000E+00      1          
kpkp198_br1            log                    factor                3.9494150794E-01      1.0000000000E-10      1.0000000000E+02       kp                    1.0000000000E+00      0.0000000000E+00      1          
kpkp213_br1            log                    factor                9.1094826601E+05      1.0000000000E-10      1.0000000000E+02       kp                    1.0000000000E+00      0.0000000000E+00      1          
kpkp214_br1            log                    factor                1.0367429314E+03      1.0000000000E-10      1.0000000000E+02       kp                    1.0000000000E+00      0.0000000000E+00      1          
kpkp215_br1            log                    factor                4.7609059043E+03      1.0000000000E-10      1.0000000000E+02       kp                    1.0000000000E+00      0.0000000000E+00      1          
kpkp216_ts1            log                    factor                2.8444727167E+00      1.0000000000E-10      1.0000000000E+02       kp                    1.0000000000E+00      0.0000000000E+00      1          
kpkp229_br1            log                    factor                1.0025369795E+02      1.0000000000E-10      1.0000000000E+02       kp                    1.0000000000E+00      0.0000000000E+00      1          
kpkp230_br1            log                    factor                9.5483318882E+01      1.0000000000E-10      1.0000000000E+02       kp                    1.0000000000E+00      0.0000000000E+00      1          
kpkp231_ts1            log                    factor                1.9093835574E-02      1.0000000000E-10      1.0000000000E+02       kp                    1.0000000000E+00      0.0000000000E+00      1          
kpkp232_ts1            log                    factor                7.7905507282E-03      1.0000000000E-10      1.0000000000E+02       kp                    1.0000000000E+00      0.0000000000E+00      1          
kpkp233_ts1            log                    factor                3.7660914860E-03      1.0000000000E-10      1.0000000000E+02       kp                    1.0000000000E+00      0.0000000000E+00      1          
kpkp234_ts1            log                    factor                1.8977323659E+03      1.0000000000E-10      1.0000000000E+02       kp                    1.0000000000E+00      0.0000000000E+00      1          
kpkp245_br1            log                    factor                2.8539212253E+03      1.0000000000E-10      1.0000000000E+02       kp                    1.0000000000E+00      0.0000000000E+00      1          
kpkp246_br1            log                    factor                1.8186977516E-03      1.0000000000E-10      1.0000000000E+02       kp                    1.0000000000E+00      0.0000000000E+00      1          
kpkp247_ts1            log                    factor                1.3927075270E+07      1.0000000000E-10      1.0000000000E+02       kp                    1.0000000000E+00      0.0000000000E+00      1          
kpkp248_ts1            log                    factor                3.1652060136E+02      1.0000000000E-10      1.0000000000E+02       kp                    1.0000000000E+00      0.0000000000E+00      1          
kpkp249_ts1            log                    factor                2.8209952624E-07      1.0000000000E-10      1.0000000000E+02       kp                    1.0000000000E+00      0.0000000000E+00      1          
kpkp250_ts1            log                    factor                6.1543947982E+00      1.0000000000E-10      1.0000000000E+02       kp                    1.0000000000E+00      0.0000000000E+00      1          
kpkp251_ts1            log                    factor                2.9156461216E+02      1.0000000000E-10      1.0000000000E+02       kp                    1.0000000000E+00      0.0000000000E+00      1          
kpkp252_ts1            log                    factor                6.6072179108E-02      1.0000000000E-10      1.0000000000E+02       kp                    1.0000000000E+00      0.0000000000E+00      1          
kpkp254_br1            log                    factor                2.9223025146E+03      1.0000000000E-10      1.0000000000E+02       kp                    1.0000000000E+00      0.0000000000E+00      1          
kpkp257_ts1            log                    factor                6.7008186216E-01      1.0000000000E-10      1.0000000000E+02       kp                    1.0000000000E+00      0.0000000000E+00      1          
kpkp258_br1            log                    factor                4.6715399721E+04      1.0000000000E-10      1.0000000000E+02       kp                    1.0000000000E+00      0.0000000000E+00      1          
kpkp259_br1            log                    factor                9.4610622785E-03      1.0000000000E-10      1.0000000000E+02       kp                    1.0000000000E+00      0.0000000000E+00      1          
kpkp260_br1            log                    factor                6.8655268011E-01      1.0000000000E-10      1.0000000000E+02       kp                    1.0000000000E+00      0.0000000000E+00      1          
kpkp261_br1            log                    factor                1.2113179617E+02      1.0000000000E-10      1.0000000000E+02       kp                    1.0000000000E+00      0.0000000000E+00      1          
kpkp262_ts1            log                    factor                3.4925993245E-03      1.0000000000E-10      1.0000000000E+02       kp                    1.0000000000E+00      0.0000000000E+00      1          
kpkp263_ts1            log                    factor                2.6789401759E-02      1.0000000000E-10      1.0000000000E+02       kp                    1.0000000000E+00      0.0000000000E+00      1          
kpkp264_ts1            log                    factor                8.2825057752E-02      1.0000000000E-10      1.0000000000E+02       kp                    1.0000000000E+00      0.0000000000E+00      1          
kpkp265_ts1            log                    factor                6.9550252577E+01      1.0000000000E-10      1.0000000000E+02       kp                    1.0000000000E+00      0.0000000000E+00      1          
kpkp266_ts1            log                    factor                9.6529125348E+04      1.0000000000E-10      1.0000000000E+02       kp                    1.0000000000E+00      0.0000000000E+00      1          
kpkp267_ts1            log                    factor                4.8268625929E+05      1.0000000000E-10      1.0000000000E+02       kp                    1.0000000000E+00      0.0000000000E+00      1          
kpkp268_ts1            log                    factor                1.0558379632E+03      1.0000000000E-10      1.0000000000E+02       kp                    1.0000000000E+00      0.0000000000E+00      1          
kpkp269_ts1            log                    factor                3.7674694343E+01      1.0000000000E-10      1.0000000000E+02       kp                    1.0000000000E+00      0.0000000000E+00      1          
kpkp270_ts1            log                    factor                5.6818411491E+00      1.0000000000E-10      1.0000000000E+02       kp                    1.0000000000E+00      0.0000000000E+00      1          
kpkp271_ts1            log                    factor                3.9244034191E-01      1.0000000000E-10      1.0000000000E+02       kp                    1.0000000000E+00      0.0000000000E+00      1          
kpkp272_ts1            log                    factor                3.9406491037E+00      1.0000000000E-10      1.0000000000E+02       kp                    1.0000000000E+00      0.0000000000E+00      1          
kpkp273_br1            log                    factor                9.0610018073E+04      1.0000000000E-10      1.0000000000E+02       kp                    1.0000000000E+00      0.0000000000E+00      1          
kpkp274_br1            log                    factor                1.2977505165E-01      1.0000000000E-10      1.0000000000E+02       kp                    1.0000000000E+00      0.0000000000E+00      1          
kpkp275_ts1            log                    factor                2.6082214595E+01      1.0000000000E-10      1.0000000000E+02       kp                    1.0000000000E+00      0.0000000000E+00      1          
kpkp276_ts1            log                    factor                1.9580860831E+01      1.0000000000E-10      1.0000000000E+02       kp                    1.0000000000E+00      0.0000000000E+00      1          
kpkp277_ts1            log                    factor                1.3869534338E+02      1.0000000000E-10      1.0000000000E+02       kp                    1.0000000000E+00      0.0000000000E+00      1          
kpkp278_ts1            log                    factor                2.2432151143E+00      1.0000000000E-10      1.0000000000E+02       kp                    1.0000000000E+00      0.0000000000E+00      1          
kpkp279_ts1            log                    factor                3.0331545851E-07      1.0000000000E-10      1.0000000000E+02       kp                    1.0000000000E+00      0.0000000000E+00      1          
kpkp280_ts1            log                    factor                8.1167882441E-01      1.0000000000E-10      1.0000000000E+02       kp                    1.0000000000E+00      0.0000000000E+00      1          
kpkp281_ts1            log                    factor                6.3445704474E+00      1.0000000000E-10      1.0000000000E+02       kp                    1.0000000000E+00      0.0000000000E+00      1          
kpkp282_ts1            log                    factor                3.8430861980E+02      1.0000000000E-10      1.0000000000E+02       kp                    1.0000000000E+00      0.0000000000E+00      1          
kpkp283_ts1            log                    factor                2.1848908545E-03      1.0000000000E-10      1.0000000000E+02       kp                    1.0000000000E+00      0.0000000000E+00      1          
kpkp284_ts1            log                    factor                3.3404592525E+08      1.0000000000E-10      1.0000000000E+02       kp                    1.0000000000E+00      0.0000000000E+00      1          
kpkp285_ts1            log                    factor                1.1139554045E+03      1.0000000000E-10      1.0000000000E+02       kp                    1.0000000000E+00      0.0000000000E+00      1          
kpkp286_ts1            log                    factor                1.0161485315E+05      1.0000000000E-10      1.0000000000E+02       kp                    1.0000000000E+00      0.0000000000E+00      1          
kpkp287_ts1            log                    factor                3.9723341128E-01      1.0000000000E-10      1.0000000000E+02       kp                    1.0000000000E+00      0.0000000000E+00      1          
kpkp288_ts1            log                    factor                4.6290906944E-01      1.0000000000E-10      1.0000000000E+02       kp                    1.0000000000E+00      0.0000000000E+00      1          
kpkp289_ts1            log                    factor                2.2113118269E-02      1.0000000000E-10      1.0000000000E+02       kp                    1.0000000000E+00      0.0000000000E+00      1          