pcf
* control data
             restart          estimation
      2710      1224         4         0         9         0
         3         2              single               point         1         0         0          noobsreref
   2.000000E+01  -3.000000E+00   3.000000E-01   1.000000E-02       -10       999          lamforgive        noderforgive
   1.000000E+01   1.000000E+01   1.000000E-03         0         0
   1.000000E-01         1   1.100000E+00               noaui          nosenreuse        noboundscale
         0   1.000000E-02         3         3   1.000000E-02         3   0.000000E+00         1  -1.000000E+00
         0         0         0         0             jcosave          verboserec          jcosaveitn          reisaveitn          parsaveitn        noparsaverun
* singular value decomposition
1
1715  5.000000e-007
1
* parameter groups
kz                      relative              1.0000000000E-02       0.0  always_3              2.0000000000E+00       parabolic             1.0000000000E-05      5.0000000000E-01       smaller              
kp                      relative              1.0000000000E-02       0.0  always_3              2.0000000000E+00       parabolic             1.0000000000E-05      5.0000000000E-01       smaller              
rech                    relative              1.0000000000E-02       0.0  always_3              2.0000000000E+00       parabolic             1.0000000000E-05      5.0000000000E-01       smaller              
cond                    relative              1.0000000000E-02       0.0  always_3              2.0000000000E+00       parabolic             1.0000000000E-05      5.0000000000E-01       smaller
* parameter data
sfrc                   log                    factor                1.0137562932E+01      1.0000000000E-10      1.0000000000E+10       cond                  1.0000000000E+00      0.0000000000E+00      1          
ghbc                   log                    factor                2.6016369196E+04      1.0000000000E-10      1.0000000000E+10       cond                  1.0000000000E+00      0.0000000000E+00      1          
ratio_sgab             fixed                  factor                1.0000000000E+00      1.0000000000E+00      1.0000000000E+10       rech                  1.0000000000E+00      0.0000000000E+00      1          
ratio_sgbc             fixed                  factor                1.0000000000E+00      7.0000000000E-01      1.0000000000E+10       rech                  1.0000000000E+00      0.0000000000E+00      1          
ratio_sgcd             fixed                  factor                1.0000000000E+00      1.0000000000E+00      1.0000000000E+10       rech                  1.0000000000E+00      0.0000000000E+00      1          
rch_mult_sgd           log                    factor                6.4852057055E-03      1.0000000000E-10      1.0000000000E+10       rech                  1.0000000000E+00      0.0000000000E+00      1          
kpkp89_mc1             log                    factor                2.5886808646E+01      1.0000000000E-10      1.0000000000E+02       kp                    1.0000000000E+00      0.0000000000E+00      1          
kpkp90_mc1             log                    factor                1.3073213654E+03      1.0000000000E-10      1.0000000000E+02       kp                    1.0000000000E+00      0.0000000000E+00      1          
kpkp106_mc1            log                    factor                1.3454277776E+01      1.0000000000E-10      1.0000000000E+02       kp                    1.0000000000E+00      0.0000000000E+00      1          
kpkp107_mc1            log                    factor                3.2323066532E-01      1.0000000000E-10      1.0000000000E+02       kp                    1.0000000000E+00      0.0000000000E+00      1          
kpkp108_mc1            log                    factor                3.2576171868E-01      1.0000000000E-10      1.0000000000E+02       kp                    1.0000000000E+00      0.0000000000E+00      1          
kpkp122_mc1            log                    factor                2.0928063375E-04      1.0000000000E-10      1.0000000000E+02       kp                    1.0000000000E+00      0.0000000000E+00      1          
kpkp123_mc1            log                    factor                1.6140986980E+02      1.0000000000E-10      1.0000000000E+02       kp                    1.0000000000E+00      0.0000000000E+00      1          
kpkp124_mc1            log                    factor                1.3804750188E-05      1.0000000000E-10      1.0000000000E+02       kp                    1.0000000000E+00      0.0000000000E+00      1          
kpkp125_mc1            log                    factor                6.5090459824E-04      1.0000000000E-10      1.0000000000E+02       kp                    1.0000000000E+00      0.0000000000E+00      1          
kpkp126_mc1            log                    factor                1.8047505313E-01      1.0000000000E-10      1.0000000000E+02       kp                    1.0000000000E+00      0.0000000000E+00      1          
kpkp139_mc1            log                    factor                4.7566138390E+01      1.0000000000E-10      1.0000000000E+02       kp                    1.0000000000E+00      0.0000000000E+00      1          
kpkp140_bh1            log                    factor                7.8097963879E-05      1.0000000000E-10      1.0000000000E+02       kp                    1.0000000000E+00      0.0000000000E+00      1          
kpkp141_mc1            log                    factor                2.1153380603E+02      1.0000000000E-10      1.0000000000E+02       kp                    1.0000000000E+00      0.0000000000E+00      1          
kpkp142_mc1            log                    factor                1.6927834759E+02      1.0000000000E-10      1.0000000000E+02       kp                    1.0000000000E+00      0.0000000000E+00      1          
kpkp143_br1            log                    factor                7.6614729233E+00      1.0000000000E-10      1.0000000000E+02       kp                    1.0000000000E+00      0.0000000000E+00      1          
kpkp144_br1            log                    factor                4.8410637302E-04      1.0000000000E-10      1.0000000000E+02       kp                    1.0000000000E+00      0.0000000000E+00      1          
kpkp156_mc1            log                    factor                2.9323113286E-04      1.0000000000E-10      1.0000000000E+02       kp                    1.0000000000E+00      0.0000000000E+00      1          
kpkp157_mc1            log                    factor                2.9731693982E+01      1.0000000000E-10      1.0000000000E+02       kp                    1.0000000000E+00      0.0000000000E+00      1          
kpkp158_tn1            log                    factor                3.9511330817E+01      1.0000000000E-10      1.0000000000E+02       kp                    1.0000000000E+00      0.0000000000E+00      1          
kpkp159_br1            log                    factor                7.2964832307E+02      1.0000000000E-10      1.0000000000E+02       kp                    1.0000000000E+00      0.0000000000E+00      1          
kpkp160_br1            log                    factor                9.0424279928E-05      1.0000000000E-10      1.0000000000E+02       kp                    1.0000000000E+00      0.0000000000E+00      1          
kpkp161_br1            log                    factor                3.0498516378E+05      1.0000000000E-10      1.0000000000E+02       kp                    1.0000000000E+00      0.0000000000E+00      1          
kpkp173_mc1            log                    factor                7.1833809621E-02      1.0000000000E-10      1.0000000000E+02       kp                    1.0000000000E+00      0.0000000000E+00      1          
kpkp174_mc1            log                    factor                7.0663559196E+01      1.0000000000E-10      1.0000000000E+02       kp                    1.0000000000E+00      0.0000000000E+00      1          
kpkp175_tn1            log                    factor                1.5221367528E+00      1.0000000000E-10      1.0000000000E+02       kp                    1.0000000000E+00      0.0000000000E+00      1          
kpkp176_br1            log                    factor                9.1526863018E-01      1.0000000000E-10      1.0000000000E+02       kp                    1.0000000000E+00      0.0000000000E+00      1          
kpkp177_br1            log                    factor                6.9729060055E-01      1.0000000000E-10      1.0000000000E+02       kp                    1.0000000000E+00      0.0000000000E+00      1          
kpkp191_mc1            log                    factor                2.6015194705E+02      1.0000000000E-10      1.0000000000E+02       kp                    1.0000000000E+00      0.0000000000E+00      1          
kpkp192_tn1            log                    factor                3.1265338499E-01      1.0000000000E-10      1.0000000000E+02       kp                    1.0000000000E+00      0.0000000000E+00      1          
kpkp193_br1            log                    factor                1.0775873678E+00      1.0000000000E-10      1.0000000000E+02       kp                    1.0000000000E+00      0.0000000000E+00      1          
kpkp202_ts1            log                    factor                2.8002420449E+02      1.0000000000E-10      1.0000000000E+02       kp                    1.0000000000E+00      0.0000000000E+00      1          
kpkp203_mc1            log                    factor                9.3451017537E+01      1.0000000000E-10      1.0000000000E+02       kp                    1.0000000000E+00      0.0000000000E+00      1          
kpkp204_br1            log                    factor                5.4819179877E+06      1.0000000000E-10      1.0000000000E+02       kp                    1.0000000000E+00      0.0000000000E+00      1          
kpkp205_mc1            log                    factor                1.0147573731E-08      1.0000000000E-10      1.0000000000E+02       kp                    1.0000000000E+00      0.0000000000E+00      1          
kpkp206_mc1            log                    factor                6.5957760589E+04      1.0000000000E-10      1.0000000000E+02       kp                    1.0000000000E+00      0.0000000000E+00      1          
kpkp207_mc1            log                    factor                1.2020206005E-02      1.0000000000E-10      1.0000000000E+02       kp                    1.0000000000E+00      0.0000000000E+00      1          
kpkp208_tn1            log                    factor                7.0709576988E+00      1.0000000000E-10      1.0000000000E+02       kp                    1.0000000000E+00      0.0000000000E+00      1          
kpkp209_ks1            log                    factor                2.2052108382E+06      1.0000000000E-10      1.0000000000E+02       kp                    1.0000000000E+00      0.0000000000E+00      1          
kpkp217_ts1            log                    factor                1.7598356126E-04      1.0000000000E-10      1.0000000000E+02       kp                    1.0000000000E+00      0.0000000000E+00      1          
kpkp218_ts1            log                    factor                1.1509433844E-03      1.0000000000E-10      1.0000000000E+02       kp                    1.0000000000E+00      0.0000000000E+00      1          
kpkp219_ts1            log                    factor                4.3349869998E+02      1.0000000000E-10      1.0000000000E+02       kp                    1.0000000000E+00      0.0000000000E+00      1          
kpkp220_br1            log                    factor                2.7012980100E+01      1.0000000000E-10      1.0000000000E+02       kp                    1.0000000000E+00      0.0000000000E+00      1          
kpkp221_br1            log                    factor                2.1327709973E+05      1.0000000000E-10      1.0000000000E+02       kp                    1.0000000000E+00      0.0000000000E+00      1          
kpkp222_br1            log                    factor                3.5704914556E+06      1.0000000000E-10      1.0000000000E+02       kp                    1.0000000000E+00      0.0000000000E+00      1          
kpkp223_br1            log                    factor                9.8166565592E+04      1.0000000000E-10      1.0000000000E+02       kp                    1.0000000000E+00      0.0000000000E+00      1          
kpkp224_ks1            log                    factor                2.7320127398E+00      1.0000000000E-10      1.0000000000E+02       kp                    1.0000000000E+00      0.0000000000E+00      1          
kpkp225_ks1            log                    factor                4.6330739934E-02      1.0000000000E-10      1.0000000000E+02       kp                    1.0000000000E+00      0.0000000000E+00      1          
kpkp235_br1            log                    factor                1.2522842946E-02      1.0000000000E-10      1.0000000000E+02       kp                    1.0000000000E+00      0.0000000000E+00      1          
kpkp236_ts1            log                    factor                4.7564825434E-01      1.0000000000E-10      1.0000000000E+02       kp                    1.0000000000E+00      0.0000000000E+00      1          
kpkp237_br1            log                    factor                9.2081948297E+00      1.0000000000E-10      1.0000000000E+02       kp                    1.0000000000E+00      0.0000000000E+00      1          
kpkp238_br1            log                    factor                2.0002981850E+04      1.0000000000E-10      1.0000000000E+02       kp                    1.0000000000E+00      0.0000000000E+00      1          
kpkp239_br1            log                    factor                1.0422139622E+02      1.0000000000E-10      1.0000000000E+02       kp                    1.0000000000E+00      0.0000000000E+00      1          
kpkp240_br1            log                    factor                5.5556697911E-02      1.0000000000E-10      1.0000000000E+02       kp                    1.0000000000E+00      0.0000000000E+00      1          
kpkp253_br1            log                    factor                3.0106453522E+03      1.0000000000E-10      1.0000000000E+02       kp                    1.0000000000E+00      0.0000000000E+00      1          
kpkp255_br1            log                    factor                5.9295858986E+06      1.0000000000E-10      1.0000000000E+02       kp                    1.0000000000E+00      0.0000000000E+00      1          
kpkp256_br1            log                    factor                2.1523028417E-01      1.0000000000E-10      1.0000000000E+02       kp                    1.0000000000E+00      0.0000000000E+00      1          
kpkp162_br1            log                    factor                4.0142953662E+01      1.0000000000E-10      1.0000000000E+02       kp                    1.0000000000E+00      0.0000000000E+00      1          
kpkp178_br1            log                    factor                1.7463230305E+00      1.0000000000E-10      1.0000000000E+02       kp                    1.0000000000E+00      0.0000000000E+00      1          
kpkp179_br1            log                    factor                1.3867101196E-01      1.0000000000E-10      1.0000000000E+02       kp                    1.0000000000E+00      0.0000000000E+00      1          
kpkp194_br1            log                    factor                6.2635045135E-04      1.0000000000E-10      1.0000000000E+02       kp                    1.0000000000E+00      0.0000000000E+00      1          
kpkp195_br1            log                    factor                3.5654238156E-01      1.0000000000E-10      1.0000000000E+02       kp                    1.0000000000E+00      0.0000000000E+00      1          
kpkp196_br1            log                    factor                2.8825577268E+00      1.0000000000E-10      1.0000000000E+02       kp                    1.0000000000E+00      0.0000000000E+00      1          
kpkp210_br1            log                    factor                2.6939098065E-04      1.0000000000E-10      1.0000000000E+02       kp                    1.0000000000E+00      0.0000000000E+00      1          
kpkp211_br1            log                    factor                8.8575593229E+02      1.0000000000E-10      1.0000000000E+02       kp                    1.0000000000E+00      0.0000000000E+00      1          
kpkp212_br1            log                    factor                8.8226977495E-02      1.0000000000E-10      1.0000000000E+02       kp                    1.0000000000E+00      0.0000000000E+00      1          
kpkp226_br1            log                    factor                1.6320065197E-05      1.0000000000E-10      1.0000000000E+02       kp                    1.0000000000E+00      0.0000000000E+00      1          
kpkp227_br1            log                    factor                4.4543542544E+02      1.0000000000E-10      1.0000000000E+02       kp                    1.0000000000E+00      0.0000000000E+00      1          
kpkp228_br1            log                    factor                1.1564530869E+05      1.0000000000E-10      1.0000000000E+02       kp                    1.0000000000E+00      0.0000000000E+00      1          
kpkp241_br1            log                    factor                1.0850035933E-03      1.0000000000E-10      1.0000000000E+02       kp                    1.0000000000E+00      0.0000000000E+00      1          
kpkp242_br1            log                    factor                2.0267148063E-01      1.0000000000E-10      1.0000000000E+02       kp                    1.0000000000E+00      0.0000000000E+00      1          
kpkp243_br1            log                    factor                7.2791322035E-04      1.0000000000E-10      1.0000000000E+02       kp                    1.0000000000E+00      0.0000000000E+00      1          
kpkp180_br1            log                    factor                1.1449416467E-03      1.0000000000E-10      1.0000000000E+02       kp                    1.0000000000E+00      0.0000000000E+00      1          
kpkp197_br1            log                    factor                8.2579093975E+02      1.0000000000E-10      1.0000000000E+02       kp                    1.0000000000E+00      0.0000000000E+00      1          
kpkp198_br1            log                    factor                1.1984056388E+01      1.0000000000E-10      1.0000000000E+02       kp                    1.0000000000E+00      0.0000000000E+00      1          
kpkp213_br1            log                    factor                1.9738623742E-03      1.0000000000E-10      1.0000000000E+02       kp                    1.0000000000E+00      0.0000000000E+00      1          
kpkp214_br1            log                    factor                1.9478681702E-01      1.0000000000E-10      1.0000000000E+02       kp                    1.0000000000E+00      0.0000000000E+00      1          
kpkp215_br1            log                    factor                4.6149576234E+01      1.0000000000E-10      1.0000000000E+02       kp                    1.0000000000E+00      0.0000000000E+00      1          
kpkp216_ts1            log                    factor                5.9263140636E+02      1.0000000000E-10      1.0000000000E+02       kp                    1.0000000000E+00      0.0000000000E+00      1          
kpkp229_br1            log                    factor                2.0212357211E+02      1.0000000000E-10      1.0000000000E+02       kp                    1.0000000000E+00      0.0000000000E+00      1          
kpkp230_br1            log                    factor                5.0546115566E+00      1.0000000000E-10      1.0000000000E+02       kp                    1.0000000000E+00      0.0000000000E+00      1          
kpkp231_ts1            log                    factor                4.1878674432E+05      1.0000000000E-10      1.0000000000E+02       kp                    1.0000000000E+00      0.0000000000E+00      1          
kpkp232_ts1            log                    factor                1.2401533186E+03      1.0000000000E-10      1.0000000000E+02       kp                    1.0000000000E+00      0.0000000000E+00      1          
kpkp233_ts1            log                    factor                2.1378909583E+02      1.0000000000E-10      1.0000000000E+02       kp                    1.0000000000E+00      0.0000000000E+00      1          
kpkp234_ts1            log                    factor                1.6263507317E+00      1.0000000000E-10      1.0000000000E+02       kp                    1.0000000000E+00      0.0000000000E+00      1          
kpkp245_br1            log                    factor                9.5588793683E+03      1.0000000000E-10      1.0000000000E+02       kp                    1.0000000000E+00      0.0000000000E+00      1          
kpkp246_br1            log                    factor                2.1941343955E-04      1.0000000000E-10      1.0000000000E+02       kp                    1.0000000000E+00      0.0000000000E+00      1          
kpkp247_ts1            log                    factor                2.8820320708E+05      1.0000000000E-10      1.0000000000E+02       kp                    1.0000000000E+00      0.0000000000E+00      1          
kpkp248_ts1            log                    factor                5.5187901437E+00      1.0000000000E-10      1.0000000000E+02       kp                    1.0000000000E+00      0.0000000000E+00      1          
kpkp249_ts1            log                    factor                6.4710703386E+02      1.0000000000E-10      1.0000000000E+02       kp                    1.0000000000E+00      0.0000000000E+00      1          
kpkp250_ts1            log                    factor                1.0454715231E+04      1.0000000000E-10      1.0000000000E+02       kp                    1.0000000000E+00      0.0000000000E+00      1          
kpkp251_ts1            log                    factor                2.7935980737E-04      1.0000000000E-10      1.0000000000E+02       kp                    1.0000000000E+00      0.0000000000E+00      1          
kpkp252_ts1            log                    factor                1.1047084579E+01      1.0000000000E-10      1.0000000000E+02       kp                    1.0000000000E+00      0.0000000000E+00      1          
kpkp254_br1            log                    factor                2.7577332325E+02      1.0000000000E-10      1.0000000000E+02       kp                    1.0000000000E+00      0.0000000000E+00      1          
kpkp257_ts1            log                    factor                5.6297214171E+05      1.0000000000E-10      1.0000000000E+02       kp                    1.0000000000E+00      0.0000000000E+00      1          
kpkp258_br1            log                    factor                9.7321620798E+02      1.0000000000E-10      1.0000000000E+02       kp                    1.0000000000E+00      0.0000000000E+00      1          
kpkp259_br1            log                    factor                2.5280623259E-01      1.0000000000E-10      1.0000000000E+02       kp                    1.0000000000E+00      0.0000000000E+00      1          
kpkp260_br1            log                    factor                1.6133158446E+01      1.0000000000E-10      1.0000000000E+02       kp                    1.0000000000E+00      0.0000000000E+00      1          
kpkp261_br1            log                    factor                1.2103391921E+07      1.0000000000E-10      1.0000000000E+02       kp                    1.0000000000E+00      0.0000000000E+00      1          
kpkp262_ts1            log                    factor                8.2684025979E+00      1.0000000000E-10      1.0000000000E+02       kp                    1.0000000000E+00      0.0000000000E+00      1          
kpkp263_ts1            log                    factor                1.8997063343E-04      1.0000000000E-10      1.0000000000E+02       kp                    1.0000000000E+00      0.0000000000E+00      1          
kpkp264_ts1            log                    factor                1.2722088094E+02      1.0000000000E-10      1.0000000000E+02       kp                    1.0000000000E+00      0.0000000000E+00      1          
kpkp265_ts1            log                    factor                3.3584876884E+03      1.0000000000E-10      1.0000000000E+02       kp                    1.0000000000E+00      0.0000000000E+00      1          
kpkp266_ts1            log                    factor                1.6133495021E+00      1.0000000000E-10      1.0000000000E+02       kp                    1.0000000000E+00      0.0000000000E+00      1          
kpkp267_ts1            log                    factor                4.6679717573E+03      1.0000000000E-10      1.0000000000E+02       kp                    1.0000000000E+00      0.0000000000E+00      1          
kpkp268_ts1            log                    factor                1.0589427702E+03      1.0000000000E-10      1.0000000000E+02       kp                    1.0000000000E+00      0.0000000000E+00      1          
kpkp269_ts1            log                    factor                1.4222085523E+06      1.0000000000E-10      1.0000000000E+02       kp                    1.0000000000E+00      0.0000000000E+00      1          
kpkp270_ts1            log                    factor                7.3577639293E-04      1.0000000000E-10      1.0000000000E+02       kp                    1.0000000000E+00      0.0000000000E+00      1          
kpkp271_ts1            log                    factor                1.0614783170E+01      1.0000000000E-10      1.0000000000E+02       kp                    1.0000000000E+00      0.0000000000E+00      1          
kpkp272_ts1            log                    factor                4.0611210522E+02      1.0000000000E-10      1.0000000000E+02       kp                    1.0000000000E+00      0.0000000000E+00      1          
kpkp273_br1            log                    factor                4.0185558096E-08      1.0000000000E-10      1.0000000000E+02       kp                    1.0000000000E+00      0.0000000000E+00      1          
kpkp274_br1            log                    factor                7.1351319971E-01      1.0000000000E-10      1.0000000000E+02       kp                    1.0000000000E+00      0.0000000000E+00      1          
kpkp275_ts1            log                    factor                2.1540766140E+00      1.0000000000E-10      1.0000000000E+02       kp                    1.0000000000E+00      0.0000000000E+00      1          
kpkp276_ts1            log                    factor                1.7128188953E+01      1.0000000000E-10      1.0000000000E+02       kp                    1.0000000000E+00      0.0000000000E+00      1          
kpkp277_ts1            log                    factor                1.6922847807E+04      1.0000000000E-10      1.0000000000E+02       kp                    1.0000000000E+00      0.0000000000E+00      1          
kpkp278_ts1            log                    factor                2.1392468322E-02      1.0000000000E-10      1.0000000000E+02       kp                    1.0000000000E+00      0.0000000000E+00      1          
kpkp279_ts1            log                    factor                7.0946627599E+06      1.0000000000E-10      1.0000000000E+02       kp                    1.0000000000E+00      0.0000000000E+00      1          
kpkp280_ts1            log                    factor                9.0389499801E-03      1.0000000000E-10      1.0000000000E+02       kp                    1.0000000000E+00      0.0000000000E+00      1          
kpkp281_ts1            log                    factor                1.1748433523E-01      1.0000000000E-10      1.0000000000E+02       kp                    1.0000000000E+00      0.0000000000E+00      1          
kpkp282_ts1            log                    factor                1.3685006689E+08      1.0000000000E-10      1.0000000000E+02       kp                    1.0000000000E+00      0.0000000000E+00      1          
kpkp283_ts1            log                    factor                1.1364938929E+04      1.0000000000E-10      1.0000000000E+02       kp                    1.0000000000E+00      0.0000000000E+00      1          
kpkp284_ts1            log                    factor                1.4447094448E-04      1.0000000000E-10      1.0000000000E+02       kp                    1.0000000000E+00      0.0000000000E+00      1          
kpkp285_ts1            log                    factor                1.4814297715E+02      1.0000000000E-10      1.0000000000E+02       kp                    1.0000000000E+00      0.0000000000E+00      1          
kpkp286_ts1            log                    factor                1.2357912656E+03      1.0000000000E-10      1.0000000000E+02       kp                    1.0000000000E+00      0.0000000000E+00      1          
kpkp287_ts1            log                    factor                4.8394472219E+03      1.0000000000E-10      1.0000000000E+02       kp                    1.0000000000E+00      0.0000000000E+00      1          
kpkp288_ts1            log                    factor                5.8496896886E-05      1.0000000000E-10      1.0000000000E+02       kp                    1.0000000000E+00      0.0000000000E+00      1          
kpkp289_ts1            log                    factor                2.1737816773E+01      1.0000000000E-10      1.0000000000E+02       kp                    1.0000000000E+00      0.0000000000E+00      1          