pcf
* control data
             restart          estimation
      2710      1224         4         0         9         0
         3         2              single               point         1         0         0          noobsreref
   2.000000E+01  -3.000000E+00   3.000000E-01   1.000000E-02       -10       999          lamforgive        noderforgive
   1.000000E+01   1.000000E+01   1.000000E-03         0         0
   1.000000E-01         1   1.100000E+00               noaui          nosenreuse        noboundscale
         0   1.000000E-02         3         3   1.000000E-02         3   0.000000E+00         1  -1.000000E+00
         0         0         0         0             jcosave          verboserec          jcosaveitn          reisaveitn          parsaveitn        noparsaverun
* singular value decomposition
1
1715  5.000000e-007
1
* parameter groups
kz                      relative              1.0000000000E-02       0.0  always_3              2.0000000000E+00       parabolic             1.0000000000E-05      5.0000000000E-01       smaller              
kp                      relative              1.0000000000E-02       0.0  always_3              2.0000000000E+00       parabolic             1.0000000000E-05      5.0000000000E-01       smaller              
rech                    relative              1.0000000000E-02       0.0  always_3              2.0000000000E+00       parabolic             1.0000000000E-05      5.0000000000E-01       smaller              
cond                    relative              1.0000000000E-02       0.0  always_3              2.0000000000E+00       parabolic             1.0000000000E-05      5.0000000000E-01       smaller
* parameter data
sfrc                   log                    factor                1.1669308913E+04      1.0000000000E-10      1.0000000000E+10       cond                  1.0000000000E+00      0.0000000000E+00      1          
ghbc                   log                    factor                1.2080142875E+01      1.0000000000E-10      1.0000000000E+10       cond                  1.0000000000E+00      0.0000000000E+00      1          
ratio_sgab             fixed                  factor                1.0000000000E+00      1.0000000000E+00      1.0000000000E+10       rech                  1.0000000000E+00      0.0000000000E+00      1          
ratio_sgbc             fixed                  factor                1.0000000000E+00      7.0000000000E-01      1.0000000000E+10       rech                  1.0000000000E+00      0.0000000000E+00      1          
ratio_sgcd             fixed                  factor                1.0000000000E+00      1.0000000000E+00      1.0000000000E+10       rech                  1.0000000000E+00      0.0000000000E+00      1          
rch_mult_sgd           log                    factor                7.4361317061E-06      1.0000000000E-10      1.0000000000E+10       rech                  1.0000000000E+00      0.0000000000E+00      1          
kpkp89_mc1             log                    factor                2.0866170842E+01      1.0000000000E-10      1.0000000000E+02       kp                    1.0000000000E+00      0.0000000000E+00      1          
kpkp90_mc1             log                    factor                3.9741255343E-01      1.0000000000E-10      1.0000000000E+02       kp                    1.0000000000E+00      0.0000000000E+00      1          
kpkp106_mc1            log                    factor                7.3309654122E-04      1.0000000000E-10      1.0000000000E+02       kp                    1.0000000000E+00      0.0000000000E+00      1          
kpkp107_mc1            log                    factor                4.2496081073E+04      1.0000000000E-10      1.0000000000E+02       kp                    1.0000000000E+00      0.0000000000E+00      1          
kpkp108_mc1            log                    factor                4.3183126688E-02      1.0000000000E-10      1.0000000000E+02       kp                    1.0000000000E+00      0.0000000000E+00      1          
kpkp122_mc1            log                    factor                2.5272150466E+00      1.0000000000E-10      1.0000000000E+02       kp                    1.0000000000E+00      0.0000000000E+00      1          
kpkp123_mc1            log                    factor                6.7828291829E-04      1.0000000000E-10      1.0000000000E+02       kp                    1.0000000000E+00      0.0000000000E+00      1          
kpkp124_mc1            log                    factor                1.3983973433E-02      1.0000000000E-10      1.0000000000E+02       kp                    1.0000000000E+00      0.0000000000E+00      1          
kpkp125_mc1            log                    factor                1.1127879065E+01      1.0000000000E-10      1.0000000000E+02       kp                    1.0000000000E+00      0.0000000000E+00      1          
kpkp126_mc1            log                    factor                9.2396460163E-02      1.0000000000E-10      1.0000000000E+02       kp                    1.0000000000E+00      0.0000000000E+00      1          
kpkp139_mc1            log                    factor                1.3755763892E-03      1.0000000000E-10      1.0000000000E+02       kp                    1.0000000000E+00      0.0000000000E+00      1          
kpkp140_bh1            log                    factor                6.7529338829E-05      1.0000000000E-10      1.0000000000E+02       kp                    1.0000000000E+00      0.0000000000E+00      1          
kpkp141_mc1            log                    factor                7.5536841327E-05      1.0000000000E-10      1.0000000000E+02       kp                    1.0000000000E+00      0.0000000000E+00      1          
kpkp142_mc1            log                    factor                1.4140089286E-06      1.0000000000E-10      1.0000000000E+02       kp                    1.0000000000E+00      0.0000000000E+00      1          
kpkp143_br1            log                    factor                9.6738677240E+00      1.0000000000E-10      1.0000000000E+02       kp                    1.0000000000E+00      0.0000000000E+00      1          
kpkp144_br1            log                    factor                1.0878299686E+05      1.0000000000E-10      1.0000000000E+02       kp                    1.0000000000E+00      0.0000000000E+00      1          
kpkp156_mc1            log                    factor                6.8326598709E+06      1.0000000000E-10      1.0000000000E+02       kp                    1.0000000000E+00      0.0000000000E+00      1          
kpkp157_mc1            log                    factor                3.6636997491E+00      1.0000000000E-10      1.0000000000E+02       kp                    1.0000000000E+00      0.0000000000E+00      1          
kpkp158_tn1            log                    factor                1.9292749437E+04      1.0000000000E-10      1.0000000000E+02       kp                    1.0000000000E+00      0.0000000000E+00      1          
kpkp159_br1            log                    factor                9.3978171742E-03      1.0000000000E-10      1.0000000000E+02       kp                    1.0000000000E+00      0.0000000000E+00      1          
kpkp160_br1            log                    factor                5.2823288505E-03      1.0000000000E-10      1.0000000000E+02       kp                    1.0000000000E+00      0.0000000000E+00      1          
kpkp161_br1            log                    factor                1.1028517399E+00      1.0000000000E-10      1.0000000000E+02       kp                    1.0000000000E+00      0.0000000000E+00      1          
kpkp173_mc1            log                    factor                2.3740072278E-04      1.0000000000E-10      1.0000000000E+02       kp                    1.0000000000E+00      0.0000000000E+00      1          
kpkp174_mc1            log                    factor                2.0996644752E+00      1.0000000000E-10      1.0000000000E+02       kp                    1.0000000000E+00      0.0000000000E+00      1          
kpkp175_tn1            log                    factor                1.0268893778E-01      1.0000000000E-10      1.0000000000E+02       kp                    1.0000000000E+00      0.0000000000E+00      1          
kpkp176_br1            log                    factor                2.3492439925E+02      1.0000000000E-10      1.0000000000E+02       kp                    1.0000000000E+00      0.0000000000E+00      1          
kpkp177_br1            log                    factor                2.9363165648E-06      1.0000000000E-10      1.0000000000E+02       kp                    1.0000000000E+00      0.0000000000E+00      1          
kpkp191_mc1            log                    factor                6.4082668347E+01      1.0000000000E-10      1.0000000000E+02       kp                    1.0000000000E+00      0.0000000000E+00      1          
kpkp192_tn1            log                    factor                1.4836664869E+02      1.0000000000E-10      1.0000000000E+02       kp                    1.0000000000E+00      0.0000000000E+00      1          
kpkp193_br1            log                    factor                1.8384638925E+03      1.0000000000E-10      1.0000000000E+02       kp                    1.0000000000E+00      0.0000000000E+00      1          
kpkp202_ts1            log                    factor                3.5781333369E-06      1.0000000000E-10      1.0000000000E+02       kp                    1.0000000000E+00      0.0000000000E+00      1          
kpkp203_mc1            log                    factor                2.9521251219E+01      1.0000000000E-10      1.0000000000E+02       kp                    1.0000000000E+00      0.0000000000E+00      1          
kpkp204_br1            log                    factor                6.5646751150E+01      1.0000000000E-10      1.0000000000E+02       kp                    1.0000000000E+00      0.0000000000E+00      1          
kpkp205_mc1            log                    factor                1.4011786197E+00      1.0000000000E-10      1.0000000000E+02       kp                    1.0000000000E+00      0.0000000000E+00      1          
kpkp206_mc1            log                    factor                6.6833137109E+01      1.0000000000E-10      1.0000000000E+02       kp                    1.0000000000E+00      0.0000000000E+00      1          
kpkp207_mc1            log                    factor                1.0023461417E+01      1.0000000000E-10      1.0000000000E+02       kp                    1.0000000000E+00      0.0000000000E+00      1          
kpkp208_tn1            log                    factor                2.0797923048E-02      1.0000000000E-10      1.0000000000E+02       kp                    1.0000000000E+00      0.0000000000E+00      1          
kpkp209_ks1            log                    factor                1.3136589714E+02      1.0000000000E-10      1.0000000000E+02       kp                    1.0000000000E+00      0.0000000000E+00      1          
kpkp217_ts1            log                    factor                3.0140671667E+01      1.0000000000E-10      1.0000000000E+02       kp                    1.0000000000E+00      0.0000000000E+00      1          
kpkp218_ts1            log                    factor                5.6299519456E+01      1.0000000000E-10      1.0000000000E+02       kp                    1.0000000000E+00      0.0000000000E+00      1          
kpkp219_ts1            log                    factor                1.9842517111E-01      1.0000000000E-10      1.0000000000E+02       kp                    1.0000000000E+00      0.0000000000E+00      1          
kpkp220_br1            log                    factor                1.0571454945E+03      1.0000000000E-10      1.0000000000E+02       kp                    1.0000000000E+00      0.0000000000E+00      1          
kpkp221_br1            log                    factor                3.5401258642E+00      1.0000000000E-10      1.0000000000E+02       kp                    1.0000000000E+00      0.0000000000E+00      1          
kpkp222_br1            log                    factor                6.1556212227E-06      1.0000000000E-10      1.0000000000E+02       kp                    1.0000000000E+00      0.0000000000E+00      1          
kpkp223_br1            log                    factor                2.8182571434E-03      1.0000000000E-10      1.0000000000E+02       kp                    1.0000000000E+00      0.0000000000E+00      1          
kpkp224_ks1            log                    factor                3.5174595479E+01      1.0000000000E-10      1.0000000000E+02       kp                    1.0000000000E+00      0.0000000000E+00      1          
kpkp225_ks1            log                    factor                5.6478330589E+01      1.0000000000E-10      1.0000000000E+02       kp                    1.0000000000E+00      0.0000000000E+00      1          
kpkp235_br1            log                    factor                1.1214580791E+05      1.0000000000E-10      1.0000000000E+02       kp                    1.0000000000E+00      0.0000000000E+00      1          
kpkp236_ts1            log                    factor                2.3490743614E+02      1.0000000000E-10      1.0000000000E+02       kp                    1.0000000000E+00      0.0000000000E+00      1          
kpkp237_br1            log                    factor                1.0889225402E+05      1.0000000000E-10      1.0000000000E+02       kp                    1.0000000000E+00      0.0000000000E+00      1          
kpkp238_br1            log                    factor                3.4090808637E+00      1.0000000000E-10      1.0000000000E+02       kp                    1.0000000000E+00      0.0000000000E+00      1          
kpkp239_br1            log                    factor                2.0837703684E+02      1.0000000000E-10      1.0000000000E+02       kp                    1.0000000000E+00      0.0000000000E+00      1          
kpkp240_br1            log                    factor                2.0609305980E+00      1.0000000000E-10      1.0000000000E+02       kp                    1.0000000000E+00      0.0000000000E+00      1          
kpkp253_br1            log                    factor                8.6217975798E-02      1.0000000000E-10      1.0000000000E+02       kp                    1.0000000000E+00      0.0000000000E+00      1          
kpkp255_br1            log                    factor                1.2314901875E+03      1.0000000000E-10      1.0000000000E+02       kp                    1.0000000000E+00      0.0000000000E+00      1          
kpkp256_br1            log                    factor                1.0322450251E+02      1.0000000000E-10      1.0000000000E+02       kp                    1.0000000000E+00      0.0000000000E+00      1          
kpkp162_br1            log                    factor                1.6712197270E+03      1.0000000000E-10      1.0000000000E+02       kp                    1.0000000000E+00      0.0000000000E+00      1          
kpkp178_br1            log                    factor                1.1829527060E+05      1.0000000000E-10      1.0000000000E+02       kp                    1.0000000000E+00      0.0000000000E+00      1          
kpkp179_br1            log                    factor                3.3938419097E+00      1.0000000000E-10      1.0000000000E+02       kp                    1.0000000000E+00      0.0000000000E+00      1          
kpkp194_br1            log                    factor                3.3383034990E-03      1.0000000000E-10      1.0000000000E+02       kp                    1.0000000000E+00      0.0000000000E+00      1          
kpkp195_br1            log                    factor                2.7215462994E+06      1.0000000000E-10      1.0000000000E+02       kp                    1.0000000000E+00      0.0000000000E+00      1          
kpkp196_br1            log                    factor                9.0047592146E+01      1.0000000000E-10      1.0000000000E+02       kp                    1.0000000000E+00      0.0000000000E+00      1          
kpkp210_br1            log                    factor                3.0954569363E-01      1.0000000000E-10      1.0000000000E+02       kp                    1.0000000000E+00      0.0000000000E+00      1          
kpkp211_br1            log                    factor                1.7088232007E+04      1.0000000000E-10      1.0000000000E+02       kp                    1.0000000000E+00      0.0000000000E+00      1          
kpkp212_br1            log                    factor                6.6952552369E+02      1.0000000000E-10      1.0000000000E+02       kp                    1.0000000000E+00      0.0000000000E+00      1          
kpkp226_br1            log                    factor                1.8722853336E+04      1.0000000000E-10      1.0000000000E+02       kp                    1.0000000000E+00      0.0000000000E+00      1          
kpkp227_br1            log                    factor                1.5399205859E+01      1.0000000000E-10      1.0000000000E+02       kp                    1.0000000000E+00      0.0000000000E+00      1          
kpkp228_br1            log                    factor                2.1744093002E+05      1.0000000000E-10      1.0000000000E+02       kp                    1.0000000000E+00      0.0000000000E+00      1          
kpkp241_br1            log                    factor                3.4303630178E+01      1.0000000000E-10      1.0000000000E+02       kp                    1.0000000000E+00      0.0000000000E+00      1          
kpkp242_br1            log                    factor                3.2596567706E+01      1.0000000000E-10      1.0000000000E+02       kp                    1.0000000000E+00      0.0000000000E+00      1          
kpkp243_br1            log                    factor                7.8290219635E+01      1.0000000000E-10      1.0000000000E+02       kp                    1.0000000000E+00      0.0000000000E+00      1          
kpkp180_br1            log                    factor                2.1356018077E-03      1.0000000000E-10      1.0000000000E+02       kp                    1.0000000000E+00      0.0000000000E+00      1          
kpkp197_br1            log                    factor                1.0369874358E+05      1.0000000000E-10      1.0000000000E+02       kp                    1.0000000000E+00      0.0000000000E+00      1          
kpkp198_br1            log                    factor                3.9638135957E-03      1.0000000000E-10      1.0000000000E+02       kp                    1.0000000000E+00      0.0000000000E+00      1          
kpkp213_br1            log                    factor                1.5001540641E+02      1.0000000000E-10      1.0000000000E+02       kp                    1.0000000000E+00      0.0000000000E+00      1          
kpkp214_br1            log                    factor                2.9856442927E-02      1.0000000000E-10      1.0000000000E+02       kp                    1.0000000000E+00      0.0000000000E+00      1          
kpkp215_br1            log                    factor                2.8641849703E+00      1.0000000000E-10      1.0000000000E+02       kp                    1.0000000000E+00      0.0000000000E+00      1          
kpkp216_ts1            log                    factor                1.0772665523E+03      1.0000000000E-10      1.0000000000E+02       kp                    1.0000000000E+00      0.0000000000E+00      1          
kpkp229_br1            log                    factor                7.2361737819E+04      1.0000000000E-10      1.0000000000E+02       kp                    1.0000000000E+00      0.0000000000E+00      1          
kpkp230_br1            log                    factor                2.7153529966E-02      1.0000000000E-10      1.0000000000E+02       kp                    1.0000000000E+00      0.0000000000E+00      1          
kpkp231_ts1            log                    factor                1.9500366923E-01      1.0000000000E-10      1.0000000000E+02       kp                    1.0000000000E+00      0.0000000000E+00      1          
kpkp232_ts1            log                    factor                1.7739566306E+05      1.0000000000E-10      1.0000000000E+02       kp                    1.0000000000E+00      0.0000000000E+00      1          
kpkp233_ts1            log                    factor                4.7798239011E+03      1.0000000000E-10      1.0000000000E+02       kp                    1.0000000000E+00      0.0000000000E+00      1          
kpkp234_ts1            log                    factor                6.7416465439E+04      1.0000000000E-10      1.0000000000E+02       kp                    1.0000000000E+00      0.0000000000E+00      1          
kpkp245_br1            log                    factor                1.5954688055E+03      1.0000000000E-10      1.0000000000E+02       kp                    1.0000000000E+00      0.0000000000E+00      1          
kpkp246_br1            log                    factor                3.0887369696E+01      1.0000000000E-10      1.0000000000E+02       kp                    1.0000000000E+00      0.0000000000E+00      1          
kpkp247_ts1            log                    factor                2.0576069965E+06      1.0000000000E-10      1.0000000000E+02       kp                    1.0000000000E+00      0.0000000000E+00      1          
kpkp248_ts1            log                    factor                5.1002609571E+08      1.0000000000E-10      1.0000000000E+02       kp                    1.0000000000E+00      0.0000000000E+00      1          
kpkp249_ts1            log                    factor                2.8112580534E-01      1.0000000000E-10      1.0000000000E+02       kp                    1.0000000000E+00      0.0000000000E+00      1          
kpkp250_ts1            log                    factor                1.1520404138E+01      1.0000000000E-10      1.0000000000E+02       kp                    1.0000000000E+00      0.0000000000E+00      1          
kpkp251_ts1            log                    factor                4.1259225605E+00      1.0000000000E-10      1.0000000000E+02       kp                    1.0000000000E+00      0.0000000000E+00      1          
kpkp252_ts1            log                    factor                2.0942882468E+00      1.0000000000E-10      1.0000000000E+02       kp                    1.0000000000E+00      0.0000000000E+00      1          
kpkp254_br1            log                    factor                5.9060185441E+07      1.0000000000E-10      1.0000000000E+02       kp                    1.0000000000E+00      0.0000000000E+00      1          
kpkp257_ts1            log                    factor                8.9107945730E+04      1.0000000000E-10      1.0000000000E+02       kp                    1.0000000000E+00      0.0000000000E+00      1          
kpkp258_br1            log                    factor                8.2732443149E+06      1.0000000000E-10      1.0000000000E+02       kp                    1.0000000000E+00      0.0000000000E+00      1          
kpkp259_br1            log                    factor                8.0355792534E+00      1.0000000000E-10      1.0000000000E+02       kp                    1.0000000000E+00      0.0000000000E+00      1          
kpkp260_br1            log                    factor                1.1516563210E+01      1.0000000000E-10      1.0000000000E+02       kp                    1.0000000000E+00      0.0000000000E+00      1          
kpkp261_br1            log                    factor                1.0985015886E-01      1.0000000000E-10      1.0000000000E+02       kp                    1.0000000000E+00      0.0000000000E+00      1          
kpkp262_ts1            log                    factor                8.2350762885E-01      1.0000000000E-10      1.0000000000E+02       kp                    1.0000000000E+00      0.0000000000E+00      1          
kpkp263_ts1            log                    factor                1.4582221610E+00      1.0000000000E-10      1.0000000000E+02       kp                    1.0000000000E+00      0.0000000000E+00      1          
kpkp264_ts1            log                    factor                1.8417237844E-03      1.0000000000E-10      1.0000000000E+02       kp                    1.0000000000E+00      0.0000000000E+00      1          
kpkp265_ts1            log                    factor                1.0464534106E+02      1.0000000000E-10      1.0000000000E+02       kp                    1.0000000000E+00      0.0000000000E+00      1          
kpkp266_ts1            log                    factor                2.5073282150E+01      1.0000000000E-10      1.0000000000E+02       kp                    1.0000000000E+00      0.0000000000E+00      1          
kpkp267_ts1            log                    factor                2.8270032209E-06      1.0000000000E-10      1.0000000000E+02       kp                    1.0000000000E+00      0.0000000000E+00      1          
kpkp268_ts1            log                    factor                3.5807889897E+00      1.0000000000E-10      1.0000000000E+02       kp                    1.0000000000E+00      0.0000000000E+00      1          
kpkp269_ts1            log                    factor                1.6873063563E-03      1.0000000000E-10      1.0000000000E+02       kp                    1.0000000000E+00      0.0000000000E+00      1          
kpkp270_ts1            log                    factor                5.8616740684E+02      1.0000000000E-10      1.0000000000E+02       kp                    1.0000000000E+00      0.0000000000E+00      1          
kpkp271_ts1            log                    factor                2.0820082629E-02      1.0000000000E-10      1.0000000000E+02       kp                    1.0000000000E+00      0.0000000000E+00      1          
kpkp272_ts1            log                    factor                2.0700153261E-02      1.0000000000E-10      1.0000000000E+02       kp                    1.0000000000E+00      0.0000000000E+00      1          
kpkp273_br1            log                    factor                3.8055894577E+01      1.0000000000E-10      1.0000000000E+02       kp                    1.0000000000E+00      0.0000000000E+00      1          
kpkp274_br1            log                    factor                6.6388218024E+00      1.0000000000E-10      1.0000000000E+02       kp                    1.0000000000E+00      0.0000000000E+00      1          
kpkp275_ts1            log                    factor                1.3497155553E+03      1.0000000000E-10      1.0000000000E+02       kp                    1.0000000000E+00      0.0000000000E+00      1          
kpkp276_ts1            log                    factor                2.0183529712E+06      1.0000000000E-10      1.0000000000E+02       kp                    1.0000000000E+00      0.0000000000E+00      1          
kpkp277_ts1            log                    factor                9.9576931775E+01      1.0000000000E-10      1.0000000000E+02       kp                    1.0000000000E+00      0.0000000000E+00      1          
kpkp278_ts1            log                    factor                9.3556418917E-02      1.0000000000E-10      1.0000000000E+02       kp                    1.0000000000E+00      0.0000000000E+00      1          
kpkp279_ts1            log                    factor                6.9815229669E-01      1.0000000000E-10      1.0000000000E+02       kp                    1.0000000000E+00      0.0000000000E+00      1          
kpkp280_ts1            log                    factor                2.8176195957E-01      1.0000000000E-10      1.0000000000E+02       kp                    1.0000000000E+00      0.0000000000E+00      1          
kpkp281_ts1            log                    factor                1.3319925042E+03      1.0000000000E-10      1.0000000000E+02       kp                    1.0000000000E+00      0.0000000000E+00      1          
kpkp282_ts1            log                    factor                5.3835256585E+02      1.0000000000E-10      1.0000000000E+02       kp                    1.0000000000E+00      0.0000000000E+00      1          
kpkp283_ts1            log                    factor                5.6401649442E+05      1.0000000000E-10      1.0000000000E+02       kp                    1.0000000000E+00      0.0000000000E+00      1          
kpkp284_ts1            log                    factor                5.8104483237E-04      1.0000000000E-10      1.0000000000E+02       kp                    1.0000000000E+00      0.0000000000E+00      1          
kpkp285_ts1            log                    factor                9.1172409452E-02      1.0000000000E-10      1.0000000000E+02       kp                    1.0000000000E+00      0.0000000000E+00      1          
kpkp286_ts1            log                    factor                3.2296609019E+06      1.0000000000E-10      1.0000000000E+02       kp                    1.0000000000E+00      0.0000000000E+00      1          
kpkp287_ts1            log                    factor                2.4500783434E+04      1.0000000000E-10      1.0000000000E+02       kp                    1.0000000000E+00      0.0000000000E+00      1          
kpkp288_ts1            log                    factor                7.9640352871E-01      1.0000000000E-10      1.0000000000E+02       kp                    1.0000000000E+00      0.0000000000E+00      1          
kpkp289_ts1            log                    factor                2.6234455035E-02      1.0000000000E-10      1.0000000000E+02       kp                    1.0000000000E+00      0.0000000000E+00      1          