pcf
* control data
             restart          estimation
      2710      1224         4         0         9         0
         3         2              single               point         1         0         0          noobsreref
   2.000000E+01  -3.000000E+00   3.000000E-01   1.000000E-02       -10       999          lamforgive        noderforgive
   1.000000E+01   1.000000E+01   1.000000E-03         0         0
   1.000000E-01         1   1.100000E+00               noaui          nosenreuse        noboundscale
         0   1.000000E-02         3         3   1.000000E-02         3   0.000000E+00         1  -1.000000E+00
         0         0         0         0             jcosave          verboserec          jcosaveitn          reisaveitn          parsaveitn        noparsaverun
* singular value decomposition
1
1715  5.000000e-007
1
* parameter groups
kp              relative     1.0000000000E-02  0.0              always_3     2.0000000000E+00             parabolic     1.0000000000E-05     5.0000000000E-01               smaller
                  kz              relative     1.0000000000E-02  0.0              always_3     2.0000000000E+00             parabolic     1.0000000000E-05     5.0000000000E-01               smaller
                rech              relative     1.0000000000E-02  0.0              always_3     2.0000000000E+00             parabolic     1.0000000000E-05     5.0000000000E-01               smaller
                cond              relative     1.0000000000E-02  0.0              always_3     2.0000000000E+00             parabolic     1.0000000000E-05     5.0000000000E-01               smaller
* parameter data
sfrc                   log                factor     2.0053363207E-02     1.0000000000E-10     1.0000000000E+10                  cond     1.0000000000E+00     0.0000000000E+00          1
                ghbc                   log                factor     6.6573638755E+00     1.0000000000E-10     1.0000000000E+10                  cond     1.0000000000E+00     0.0000000000E+00          1
          ratio_sgab                 fixed                factor     1.0000000000E+00     1.0000000000E+00     1.0000000000E+10                  rech     1.0000000000E+00     0.0000000000E+00          1
          ratio_sgbc                 fixed                factor     1.0000000000E+00     7.0000000000E-01     1.0000000000E+10                  rech     1.0000000000E+00     0.0000000000E+00          1
          ratio_sgcd                 fixed                factor     1.0000000000E+00     1.0000000000E+00     1.0000000000E+10                  rech     1.0000000000E+00     0.0000000000E+00          1
        rch_mult_sgd                   log                factor     2.8229363068E+04     1.0000000000E-10     1.0000000000E+10                  rech     1.0000000000E+00     0.0000000000E+00          1
          kpkp89_mc1                   log                factor     9.6564381993E+00     1.0000000000E-10     1.0000000000E+02                    kp     1.0000000000E+00     0.0000000000E+00          1
          kpkp90_mc1                   log                factor     2.4814872808E-02     1.0000000000E-10     1.0000000000E+02                    kp     1.0000000000E+00     0.0000000000E+00          1
         kpkp106_mc1                   log                factor     7.4130089531E+03     1.0000000000E-10     1.0000000000E+02                    kp     1.0000000000E+00     0.0000000000E+00          1
         kpkp107_mc1                   log                factor     1.5791710689E-02     1.0000000000E-10     1.0000000000E+02                    kp     1.0000000000E+00     0.0000000000E+00          1
         kpkp108_mc1                   log                factor     3.5549899976E+06     1.0000000000E-10     1.0000000000E+02                    kp     1.0000000000E+00     0.0000000000E+00          1
         kpkp122_mc1                   log                factor     4.9874138473E-03     1.0000000000E-10     1.0000000000E+02                    kp     1.0000000000E+00     0.0000000000E+00          1
         kpkp123_mc1                   log                factor     9.4657278139E+00     1.0000000000E-10     1.0000000000E+02                    kp     1.0000000000E+00     0.0000000000E+00          1
         kpkp124_mc1                   log                factor     3.3151538278E-03     1.0000000000E-10     1.0000000000E+02                    kp     1.0000000000E+00     0.0000000000E+00          1
         kpkp125_mc1                   log                factor     5.9249993506E+02     1.0000000000E-10     1.0000000000E+02                    kp     1.0000000000E+00     0.0000000000E+00          1
         kpkp126_mc1                   log                factor     1.1269748516E-04     1.0000000000E-10     1.0000000000E+02                    kp     1.0000000000E+00     0.0000000000E+00          1
         kpkp139_mc1                   log                factor     6.5003743446E+04     1.0000000000E-10     1.0000000000E+02                    kp     1.0000000000E+00     0.0000000000E+00          1
         kpkp140_bh1                   log                factor     1.9818048753E+02     1.0000000000E-10     1.0000000000E+02                    kp     1.0000000000E+00     0.0000000000E+00          1
         kpkp141_mc1                   log                factor     2.6599475608E+03     1.0000000000E-10     1.0000000000E+02                    kp     1.0000000000E+00     0.0000000000E+00          1
         kpkp142_mc1                   log                factor     5.0157425876E+00     1.0000000000E-10     1.0000000000E+02                    kp     1.0000000000E+00     0.0000000000E+00          1
         kpkp143_br1                   log                factor     3.1190953284E-04     1.0000000000E-10     1.0000000000E+02                    kp     1.0000000000E+00     0.0000000000E+00          1
         kpkp144_br1                   log                factor     7.0045794627E+01     1.0000000000E-10     1.0000000000E+02                    kp     1.0000000000E+00     0.0000000000E+00          1
         kpkp156_mc1                   log                factor     2.7487275242E+05     1.0000000000E-10     1.0000000000E+02                    kp     1.0000000000E+00     0.0000000000E+00          1
         kpkp157_mc1                   log                factor     3.1357650831E-01     1.0000000000E-10     1.0000000000E+02                    kp     1.0000000000E+00     0.0000000000E+00          1
         kpkp158_tn1                   log                factor     3.1606514280E-02     1.0000000000E-10     1.0000000000E+02                    kp     1.0000000000E+00     0.0000000000E+00          1
         kpkp159_br1                   log                factor     1.8157406581E-01     1.0000000000E-10     1.0000000000E+02                    kp     1.0000000000E+00     0.0000000000E+00          1
         kpkp160_br1                   log                factor     4.4766500156E+01     1.0000000000E-10     1.0000000000E+02                    kp     1.0000000000E+00     0.0000000000E+00          1
         kpkp161_br1                   log                factor     3.7537041354E+01     1.0000000000E-10     1.0000000000E+02                    kp     1.0000000000E+00     0.0000000000E+00          1
         kpkp173_mc1                   log                factor     9.6741262628E+03     1.0000000000E-10     1.0000000000E+02                    kp     1.0000000000E+00     0.0000000000E+00          1
         kpkp174_mc1                   log                factor     1.6838185643E-01     1.0000000000E-10     1.0000000000E+02                    kp     1.0000000000E+00     0.0000000000E+00          1
         kpkp175_tn1                   log                factor     1.1815388175E+08     1.0000000000E-10     1.0000000000E+02                    kp     1.0000000000E+00     0.0000000000E+00          1
         kpkp176_br1                   log                factor     7.8382112146E-02     1.0000000000E-10     1.0000000000E+02                    kp     1.0000000000E+00     0.0000000000E+00          1
         kpkp177_br1                   log                factor     3.2050435488E+01     1.0000000000E-10     1.0000000000E+02                    kp     1.0000000000E+00     0.0000000000E+00          1
         kpkp191_mc1                   log                factor     7.8152998011E-02     1.0000000000E-10     1.0000000000E+02                    kp     1.0000000000E+00     0.0000000000E+00          1
         kpkp192_tn1                   log                factor     4.6470238987E+02     1.0000000000E-10     1.0000000000E+02                    kp     1.0000000000E+00     0.0000000000E+00          1
         kpkp193_br1                   log                factor     9.9403584020E+02     1.0000000000E-10     1.0000000000E+02                    kp     1.0000000000E+00     0.0000000000E+00          1
         kpkp202_ts1                   log                factor     8.3880653285E-01     1.0000000000E-10     1.0000000000E+02                    kp     1.0000000000E+00     0.0000000000E+00          1
         kpkp203_mc1                   log                factor     1.9118909593E+03     1.0000000000E-10     1.0000000000E+02                    kp     1.0000000000E+00     0.0000000000E+00          1
         kpkp204_br1                   log                factor     6.0974804866E-02     1.0000000000E-10     1.0000000000E+02                    kp     1.0000000000E+00     0.0000000000E+00          1
         kpkp205_mc1                   log                factor     8.0604787374E-05     1.0000000000E-10     1.0000000000E+02                    kp     1.0000000000E+00     0.0000000000E+00          1
         kpkp206_mc1                   log                factor     2.1452172320E-04     1.0000000000E-10     1.0000000000E+02                    kp     1.0000000000E+00     0.0000000000E+00          1
         kpkp207_mc1                   log                factor     1.0322635278E-01     1.0000000000E-10     1.0000000000E+02                    kp     1.0000000000E+00     0.0000000000E+00          1
         kpkp208_tn1                   log                factor     2.8524201085E+04     1.0000000000E-10     1.0000000000E+02                    kp     1.0000000000E+00     0.0000000000E+00          1
         kpkp209_ks1                   log                factor     2.2408270861E+03     1.0000000000E-10     1.0000000000E+02                    kp     1.0000000000E+00     0.0000000000E+00          1
         kpkp217_ts1                   log                factor     2.6926539987E+02     1.0000000000E-10     1.0000000000E+02                    kp     1.0000000000E+00     0.0000000000E+00          1
         kpkp218_ts1                   log                factor     1.1410796965E+02     1.0000000000E-10     1.0000000000E+02                    kp     1.0000000000E+00     0.0000000000E+00          1
         kpkp219_ts1                   log                factor     1.2174052881E+02     1.0000000000E-10     1.0000000000E+02                    kp     1.0000000000E+00     0.0000000000E+00          1
         kpkp220_br1                   log                factor     1.1636594276E+03     1.0000000000E-10     1.0000000000E+02                    kp     1.0000000000E+00     0.0000000000E+00          1
         kpkp221_br1                   log                factor     2.0968603192E+03     1.0000000000E-10     1.0000000000E+02                    kp     1.0000000000E+00     0.0000000000E+00          1
         kpkp222_br1                   log                factor     3.9213835388E+00     1.0000000000E-10     1.0000000000E+02                    kp     1.0000000000E+00     0.0000000000E+00          1
         kpkp223_br1                   log                factor     1.4766460374E-01     1.0000000000E-10     1.0000000000E+02                    kp     1.0000000000E+00     0.0000000000E+00          1
         kpkp224_ks1                   log                factor     1.6810324465E+02     1.0000000000E-10     1.0000000000E+02                    kp     1.0000000000E+00     0.0000000000E+00          1
         kpkp225_ks1                   log                factor     4.7317751909E+04     1.0000000000E-10     1.0000000000E+02                    kp     1.0000000000E+00     0.0000000000E+00          1
         kpkp235_br1                   log                factor     1.1229720174E+01     1.0000000000E-10     1.0000000000E+02                    kp     1.0000000000E+00     0.0000000000E+00          1
         kpkp236_ts1                   log                factor     1.7112891053E+07     1.0000000000E-10     1.0000000000E+02                    kp     1.0000000000E+00     0.0000000000E+00          1
         kpkp237_br1                   log                factor     5.1248560348E+03     1.0000000000E-10     1.0000000000E+02                    kp     1.0000000000E+00     0.0000000000E+00          1
         kpkp238_br1                   log                factor     6.7499791343E-07     1.0000000000E-10     1.0000000000E+02                    kp     1.0000000000E+00     0.0000000000E+00          1
         kpkp239_br1                   log                factor     1.3053388799E+04     1.0000000000E-10     1.0000000000E+02                    kp     1.0000000000E+00     0.0000000000E+00          1
         kpkp240_br1                   log                factor     1.8617522853E+04     1.0000000000E-10     1.0000000000E+02                    kp     1.0000000000E+00     0.0000000000E+00          1
         kpkp253_br1                   log                factor     4.6506658087E+04     1.0000000000E-10     1.0000000000E+02                    kp     1.0000000000E+00     0.0000000000E+00          1
         kpkp255_br1                   log                factor     2.3169461883E+04     1.0000000000E-10     1.0000000000E+02                    kp     1.0000000000E+00     0.0000000000E+00          1
         kpkp256_br1                   log                factor     6.7110827463E+05     1.0000000000E-10     1.0000000000E+02                    kp     1.0000000000E+00     0.0000000000E+00          1
         kpkp162_br1                   log                factor     1.0058771171E+07     1.0000000000E-10     1.0000000000E+02                    kp     1.0000000000E+00     0.0000000000E+00          1
         kpkp178_br1                   log                factor     2.5690811109E+02     1.0000000000E-10     1.0000000000E+02                    kp     1.0000000000E+00     0.0000000000E+00          1
         kpkp179_br1                   log                factor     2.2217524884E+01     1.0000000000E-10     1.0000000000E+02                    kp     1.0000000000E+00     0.0000000000E+00          1
         kpkp194_br1                   log                factor     1.9701061430E-04     1.0000000000E-10     1.0000000000E+02                    kp     1.0000000000E+00     0.0000000000E+00          1
         kpkp195_br1                   log                factor     3.6700336972E+00     1.0000000000E-10     1.0000000000E+02                    kp     1.0000000000E+00     0.0000000000E+00          1
         kpkp196_br1                   log                factor     7.1120365800E+06     1.0000000000E-10     1.0000000000E+02                    kp     1.0000000000E+00     0.0000000000E+00          1
         kpkp210_br1                   log                factor     3.8718444194E+01     1.0000000000E-10     1.0000000000E+02                    kp     1.0000000000E+00     0.0000000000E+00          1
         kpkp211_br1                   log                factor     2.8674542705E-01     1.0000000000E-10     1.0000000000E+02                    kp     1.0000000000E+00     0.0000000000E+00          1
         kpkp212_br1                   log                factor     3.5946768534E+00     1.0000000000E-10     1.0000000000E+02                    kp     1.0000000000E+00     0.0000000000E+00          1
         kpkp226_br1                   log                factor     2.4825189593E+00     1.0000000000E-10     1.0000000000E+02                    kp     1.0000000000E+00     0.0000000000E+00          1
         kpkp227_br1                   log                factor     7.3060796335E-04     1.0000000000E-10     1.0000000000E+02                    kp     1.0000000000E+00     0.0000000000E+00          1
         kpkp228_br1                   log                factor     5.6107023531E+00     1.0000000000E-10     1.0000000000E+02                    kp     1.0000000000E+00     0.0000000000E+00          1
         kpkp241_br1                   log                factor     1.1795277312E-02     1.0000000000E-10     1.0000000000E+02                    kp     1.0000000000E+00     0.0000000000E+00          1
         kpkp242_br1                   log                factor     7.2358345771E+01     1.0000000000E-10     1.0000000000E+02                    kp     1.0000000000E+00     0.0000000000E+00          1
         kpkp243_br1                   log                factor     9.6887708656E+02     1.0000000000E-10     1.0000000000E+02                    kp     1.0000000000E+00     0.0000000000E+00          1
         kpkp180_br1                   log                factor     4.6190980193E+08     1.0000000000E-10     1.0000000000E+02                    kp     1.0000000000E+00     0.0000000000E+00          1
         kpkp197_br1                   log                factor     1.6165221723E+00     1.0000000000E-10     1.0000000000E+02                    kp     1.0000000000E+00     0.0000000000E+00          1
         kpkp198_br1                   log                factor     1.8716803708E+03     1.0000000000E-10     1.0000000000E+02                    kp     1.0000000000E+00     0.0000000000E+00          1
         kpkp213_br1                   log                factor     2.4703317804E+01     1.0000000000E-10     1.0000000000E+02                    kp     1.0000000000E+00     0.0000000000E+00          1
         kpkp214_br1                   log                factor     3.0637301283E+03     1.0000000000E-10     1.0000000000E+02                    kp     1.0000000000E+00     0.0000000000E+00          1
         kpkp215_br1                   log                factor     1.7942710190E-03     1.0000000000E-10     1.0000000000E+02                    kp     1.0000000000E+00     0.0000000000E+00          1
         kpkp216_ts1                   log                factor     3.2667492891E+02     1.0000000000E-10     1.0000000000E+02                    kp     1.0000000000E+00     0.0000000000E+00          1
         kpkp229_br1                   log                factor     3.9839773064E+11     1.0000000000E-10     1.0000000000E+02                    kp     1.0000000000E+00     0.0000000000E+00          1
         kpkp230_br1                   log                factor     3.0363430187E-04     1.0000000000E-10     1.0000000000E+02                    kp     1.0000000000E+00     0.0000000000E+00          1
         kpkp231_ts1                   log                factor     8.9270631205E-02     1.0000000000E-10     1.0000000000E+02                    kp     1.0000000000E+00     0.0000000000E+00          1
         kpkp232_ts1                   log                factor     1.8847705909E+01     1.0000000000E-10     1.0000000000E+02                    kp     1.0000000000E+00     0.0000000000E+00          1
         kpkp233_ts1                   log                factor     1.2717725244E+04     1.0000000000E-10     1.0000000000E+02                    kp     1.0000000000E+00     0.0000000000E+00          1
         kpkp234_ts1                   log                factor     1.2762745362E-07     1.0000000000E-10     1.0000000000E+02                    kp     1.0000000000E+00     0.0000000000E+00          1
         kpkp245_br1                   log                factor     1.6429427705E+00     1.0000000000E-10     1.0000000000E+02                    kp     1.0000000000E+00     0.0000000000E+00          1
         kpkp246_br1                   log                factor     6.5138721671E-02     1.0000000000E-10     1.0000000000E+02                    kp     1.0000000000E+00     0.0000000000E+00          1
         kpkp247_ts1                   log                factor     2.3323801240E+00     1.0000000000E-10     1.0000000000E+02                    kp     1.0000000000E+00     0.0000000000E+00          1
         kpkp248_ts1                   log                factor     1.9078266252E-05     1.0000000000E-10     1.0000000000E+02                    kp     1.0000000000E+00     0.0000000000E+00          1
         kpkp249_ts1                   log                factor     6.8524152114E+00     1.0000000000E-10     1.0000000000E+02                    kp     1.0000000000E+00     0.0000000000E+00          1
         kpkp250_ts1                   log                factor     3.3778053175E+01     1.0000000000E-10     1.0000000000E+02                    kp     1.0000000000E+00     0.0000000000E+00          1
         kpkp251_ts1                   log                factor     8.7696567671E-02     1.0000000000E-10     1.0000000000E+02                    kp     1.0000000000E+00     0.0000000000E+00          1
         kpkp252_ts1                   log                factor     2.0215744832E-01     1.0000000000E-10     1.0000000000E+02                    kp     1.0000000000E+00     0.0000000000E+00          1
         kpkp254_br1                   log                factor     1.0489229328E-06     1.0000000000E-10     1.0000000000E+02                    kp     1.0000000000E+00     0.0000000000E+00          1
         kpkp257_ts1                   log                factor     9.2501791094E+03     1.0000000000E-10     1.0000000000E+02                    kp     1.0000000000E+00     0.0000000000E+00          1
         kpkp258_br1                   log                factor     2.5203354839E+05     1.0000000000E-10     1.0000000000E+02                    kp     1.0000000000E+00     0.0000000000E+00          1
         kpkp259_br1                   log                factor     9.7888263261E+02     1.0000000000E-10     1.0000000000E+02                    kp     1.0000000000E+00     0.0000000000E+00          1
         kpkp260_br1                   log                factor     2.9238504376E+03     1.0000000000E-10     1.0000000000E+02                    kp     1.0000000000E+00     0.0000000000E+00          1
         kpkp261_br1                   log                factor     1.3290211174E+02     1.0000000000E-10     1.0000000000E+02                    kp     1.0000000000E+00     0.0000000000E+00          1
         kpkp262_ts1                   log                factor     1.0888056971E+02     1.0000000000E-10     1.0000000000E+02                    kp     1.0000000000E+00     0.0000000000E+00          1
         kpkp263_ts1                   log                factor     1.8527019372E-01     1.0000000000E-10     1.0000000000E+02                    kp     1.0000000000E+00     0.0000000000E+00          1
         kpkp264_ts1                   log                factor     2.1770737468E-03     1.0000000000E-10     1.0000000000E+02                    kp     1.0000000000E+00     0.0000000000E+00          1
         kpkp265_ts1                   log                factor     2.0850090347E+00     1.0000000000E-10     1.0000000000E+02                    kp     1.0000000000E+00     0.0000000000E+00          1
         kpkp266_ts1                   log                factor     1.9229518067E+02     1.0000000000E-10     1.0000000000E+02                    kp     1.0000000000E+00     0.0000000000E+00          1
         kpkp267_ts1                   log                factor     6.0753787196E+03     1.0000000000E-10     1.0000000000E+02                    kp     1.0000000000E+00     0.0000000000E+00          1
         kpkp268_ts1                   log                factor     1.7634211724E+02     1.0000000000E-10     1.0000000000E+02                    kp     1.0000000000E+00     0.0000000000E+00          1
         kpkp269_ts1                   log                factor     6.1855507357E-03     1.0000000000E-10     1.0000000000E+02                    kp     1.0000000000E+00     0.0000000000E+00          1
         kpkp270_ts1                   log                factor     8.2920458284E+01     1.0000000000E-10     1.0000000000E+02                    kp     1.0000000000E+00     0.0000000000E+00          1
         kpkp271_ts1                   log                factor     2.4364635629E+03     1.0000000000E-10     1.0000000000E+02                    kp     1.0000000000E+00     0.0000000000E+00          1
         kpkp272_ts1                   log                factor     2.5192905881E-04     1.0000000000E-10     1.0000000000E+02                    kp     1.0000000000E+00     0.0000000000E+00          1
         kpkp273_br1                   log                factor     4.0281814573E+03     1.0000000000E-10     1.0000000000E+02                    kp     1.0000000000E+00     0.0000000000E+00          1
         kpkp274_br1                   log                factor     6.9662789029E+02     1.0000000000E-10     1.0000000000E+02                    kp     1.0000000000E+00     0.0000000000E+00          1
         kpkp275_ts1                   log                factor     3.5798508288E-02     1.0000000000E-10     1.0000000000E+02                    kp     1.0000000000E+00     0.0000000000E+00          1
         kpkp276_ts1                   log                factor     3.0277295528E+01     1.0000000000E-10     1.0000000000E+02                    kp     1.0000000000E+00     0.0000000000E+00          1
         kpkp277_ts1                   log                factor     7.6806755324E+01     1.0000000000E-10     1.0000000000E+02                    kp     1.0000000000E+00     0.0000000000E+00          1
         kpkp278_ts1                   log                factor     7.4360197709E+00     1.0000000000E-10     1.0000000000E+02                    kp     1.0000000000E+00     0.0000000000E+00          1
         kpkp279_ts1                   log                factor     1.1076304922E-01     1.0000000000E-10     1.0000000000E+02                    kp     1.0000000000E+00     0.0000000000E+00          1
         kpkp280_ts1                   log                factor     6.9418679631E-04     1.0000000000E-10     1.0000000000E+02                    kp     1.0000000000E+00     0.0000000000E+00          1
         kpkp281_ts1                   log                factor     8.9397664347E+04     1.0000000000E-10     1.0000000000E+02                    kp     1.0000000000E+00     0.0000000000E+00          1
         kpkp282_ts1                   log                factor     4.5984526263E+03     1.0000000000E-10     1.0000000000E+02                    kp     1.0000000000E+00     0.0000000000E+00          1
         kpkp283_ts1                   log                factor     1.6891815168E+04     1.0000000000E-10     1.0000000000E+02                    kp     1.0000000000E+00     0.0000000000E+00          1
         kpkp284_ts1                   log                factor     1.2026861145E+06     1.0000000000E-10     1.0000000000E+02                    kp     1.0000000000E+00     0.0000000000E+00          1
         kpkp285_ts1                   log                factor     2.5701128130E-11     1.0000000000E-10     1.0000000000E+02                    kp     1.0000000000E+00     0.0000000000E+00          1
         kpkp286_ts1                   log                factor     3.0536441195E+02     1.0000000000E-10     1.0000000000E+02                    kp     1.0000000000E+00     0.0000000000E+00          1
         kpkp287_ts1                   log                factor     8.3150327752E-01     1.0000000000E-10     1.0000000000E+02                    kp     1.0000000000E+00     0.0000000000E+00          1
         kpkp288_ts1                   log                factor     3.2379123575E+04     1.0000000000E-10     1.0000000000E+02                    kp     1.0000000000E+00     0.0000000000E+00          1
         kpkp289_ts1                   log                factor     4.7623527064E+04     1.0000000000E-10     1.0000000000E+02                    kp     1.0000000000E+00     0.0000000000E+00          1
         kpkp290_ts1                   log                factor     5.3324349401E+01     1.0000000000E-10     1.0000000000E+02                    kp     1.0000000000E+00     0.0000000000E+00          1
         kpkp291_ts1                   log                factor     2.5671203946E+03     1.0000000000E-10     1.0000000000E+02                    kp     1.0000000000E+00     0.0000000000E+00          1
         kpkp292_ts1                   log                factor     2.2722886550E-03     1.0000000000E-10     1.0000000000E+02                    kp     1.0000000000E+00     0.0000000000E+00          1
         kpkp293_ts1                   log                factor     2.0369726210E-01     1.0000000000E-10     1.0000000000E+02                    kp     1.0000000000E+00     0.0000000000E+00          1
         kpkp294_ts1                   log                factor     8.9932196948E-05     1.0000000000E-10     1.0000000000E+02                    kp     1.0000000000E+00     0.0000000000E+00          1
         kpkp295_ts1                   log                factor     1.3615457139E+02     1.0000000000E-10     1.0000000000E+02                    kp     1.0000000000E+00     0.0000000000E+00          1
         kpkp296_ts1                   log                factor     8.5501266002E+02     1.0000000000E-10     1.0000000000E+02                    kp     1.0000000000E+00     0.0000000000E+00          1