pcf
* control data
             restart          estimation
      2710      1224         4         0         9         0
         3         2              single               point         1         0         0          noobsreref
   2.000000E+01  -3.000000E+00   3.000000E-01   1.000000E-02       -10       999          lamforgive        noderforgive
   1.000000E+01   1.000000E+01   1.000000E-03         0         0
   1.000000E-01         1   1.100000E+00               noaui          nosenreuse        noboundscale
         0   1.000000E-02         3         3   1.000000E-02         3   0.000000E+00         1  -1.000000E+00
         0         0         0         0             jcosave          verboserec          jcosaveitn          reisaveitn          parsaveitn        noparsaverun
* singular value decomposition
1
1715  5.000000e-007
1
* parameter groups
kz                      relative              1.0000000000E-02       0.0  always_3              2.0000000000E+00       parabolic             1.0000000000E-05      5.0000000000E-01       smaller              
kp                      relative              1.0000000000E-02       0.0  always_3              2.0000000000E+00       parabolic             1.0000000000E-05      5.0000000000E-01       smaller              
rech                    relative              1.0000000000E-02       0.0  always_3              2.0000000000E+00       parabolic             1.0000000000E-05      5.0000000000E-01       smaller              
cond                    relative              1.0000000000E-02       0.0  always_3              2.0000000000E+00       parabolic             1.0000000000E-05      5.0000000000E-01       smaller
* parameter data
sfrc                   log                    factor                1.3575014422E-04      1.0000000000E-10      1.0000000000E+10       cond                  1.0000000000E+00      0.0000000000E+00      1          
ghbc                   log                    factor                6.1034831903E+07      1.0000000000E-10      1.0000000000E+10       cond                  1.0000000000E+00      0.0000000000E+00      1          
ratio_sgab             fixed                  factor                1.0000000000E+00      1.0000000000E+00      1.0000000000E+10       rech                  1.0000000000E+00      0.0000000000E+00      1          
ratio_sgbc             fixed                  factor                1.0000000000E+00      7.0000000000E-01      1.0000000000E+10       rech                  1.0000000000E+00      0.0000000000E+00      1          
ratio_sgcd             fixed                  factor                1.0000000000E+00      1.0000000000E+00      1.0000000000E+10       rech                  1.0000000000E+00      0.0000000000E+00      1          
rch_mult_sgd           log                    factor                2.0767700761E+10      1.0000000000E-10      1.0000000000E+10       rech                  1.0000000000E+00      0.0000000000E+00      1          
kpkp89_mc1             log                    factor                2.4772813810E-06      1.0000000000E-10      1.0000000000E+02       kp                    1.0000000000E+00      0.0000000000E+00      1          
kpkp90_mc1             log                    factor                9.9092211780E+02      1.0000000000E-10      1.0000000000E+02       kp                    1.0000000000E+00      0.0000000000E+00      1          
kpkp106_mc1            log                    factor                7.0739105192E+03      1.0000000000E-10      1.0000000000E+02       kp                    1.0000000000E+00      0.0000000000E+00      1          
kpkp107_mc1            log                    factor                5.5723610965E+01      1.0000000000E-10      1.0000000000E+02       kp                    1.0000000000E+00      0.0000000000E+00      1          
kpkp108_mc1            log                    factor                4.5684257089E+01      1.0000000000E-10      1.0000000000E+02       kp                    1.0000000000E+00      0.0000000000E+00      1          
kpkp122_mc1            log                    factor                5.1605338612E-01      1.0000000000E-10      1.0000000000E+02       kp                    1.0000000000E+00      0.0000000000E+00      1          
kpkp123_mc1            log                    factor                1.1783165240E-05      1.0000000000E-10      1.0000000000E+02       kp                    1.0000000000E+00      0.0000000000E+00      1          
kpkp124_mc1            log                    factor                1.2326742916E+00      1.0000000000E-10      1.0000000000E+02       kp                    1.0000000000E+00      0.0000000000E+00      1          
kpkp125_mc1            log                    factor                1.4424265874E+03      1.0000000000E-10      1.0000000000E+02       kp                    1.0000000000E+00      0.0000000000E+00      1          
kpkp126_mc1            log                    factor                1.2310686693E+00      1.0000000000E-10      1.0000000000E+02       kp                    1.0000000000E+00      0.0000000000E+00      1          
kpkp139_mc1            log                    factor                2.0352019773E+00      1.0000000000E-10      1.0000000000E+02       kp                    1.0000000000E+00      0.0000000000E+00      1          
kpkp140_bh1            log                    factor                4.7927708687E+02      1.0000000000E-10      1.0000000000E+02       kp                    1.0000000000E+00      0.0000000000E+00      1          
kpkp141_mc1            log                    factor                5.1242424346E+04      1.0000000000E-10      1.0000000000E+02       kp                    1.0000000000E+00      0.0000000000E+00      1          
kpkp142_mc1            log                    factor                1.1936258766E-01      1.0000000000E-10      1.0000000000E+02       kp                    1.0000000000E+00      0.0000000000E+00      1          
kpkp143_br1            log                    factor                5.8792781918E+01      1.0000000000E-10      1.0000000000E+02       kp                    1.0000000000E+00      0.0000000000E+00      1          
kpkp144_br1            log                    factor                2.9815100743E-02      1.0000000000E-10      1.0000000000E+02       kp                    1.0000000000E+00      0.0000000000E+00      1          
kpkp156_mc1            log                    factor                1.3570853066E+00      1.0000000000E-10      1.0000000000E+02       kp                    1.0000000000E+00      0.0000000000E+00      1          
kpkp157_mc1            log                    factor                9.4238724131E-03      1.0000000000E-10      1.0000000000E+02       kp                    1.0000000000E+00      0.0000000000E+00      1          
kpkp158_tn1            log                    factor                8.5136441546E+02      1.0000000000E-10      1.0000000000E+02       kp                    1.0000000000E+00      0.0000000000E+00      1          
kpkp159_br1            log                    factor                2.7354897895E-07      1.0000000000E-10      1.0000000000E+02       kp                    1.0000000000E+00      0.0000000000E+00      1          
kpkp160_br1            log                    factor                1.5879870896E-02      1.0000000000E-10      1.0000000000E+02       kp                    1.0000000000E+00      0.0000000000E+00      1          
kpkp161_br1            log                    factor                3.3973600296E+01      1.0000000000E-10      1.0000000000E+02       kp                    1.0000000000E+00      0.0000000000E+00      1          
kpkp173_mc1            log                    factor                8.5334733001E+05      1.0000000000E-10      1.0000000000E+02       kp                    1.0000000000E+00      0.0000000000E+00      1          
kpkp174_mc1            log                    factor                4.2562860321E+03      1.0000000000E-10      1.0000000000E+02       kp                    1.0000000000E+00      0.0000000000E+00      1          
kpkp175_tn1            log                    factor                5.5128004717E+04      1.0000000000E-10      1.0000000000E+02       kp                    1.0000000000E+00      0.0000000000E+00      1          
kpkp176_br1            log                    factor                1.7339907075E+00      1.0000000000E-10      1.0000000000E+02       kp                    1.0000000000E+00      0.0000000000E+00      1          
kpkp177_br1            log                    factor                1.8935414469E-04      1.0000000000E-10      1.0000000000E+02       kp                    1.0000000000E+00      0.0000000000E+00      1          
kpkp191_mc1            log                    factor                1.0938078569E+00      1.0000000000E-10      1.0000000000E+02       kp                    1.0000000000E+00      0.0000000000E+00      1          
kpkp192_tn1            log                    factor                7.1130267741E+03      1.0000000000E-10      1.0000000000E+02       kp                    1.0000000000E+00      0.0000000000E+00      1          
kpkp193_br1            log                    factor                5.4012235538E-08      1.0000000000E-10      1.0000000000E+02       kp                    1.0000000000E+00      0.0000000000E+00      1          
kpkp202_ts1            log                    factor                1.2363395833E+06      1.0000000000E-10      1.0000000000E+02       kp                    1.0000000000E+00      0.0000000000E+00      1          
kpkp203_mc1            log                    factor                6.3877711930E+01      1.0000000000E-10      1.0000000000E+02       kp                    1.0000000000E+00      0.0000000000E+00      1          
kpkp204_br1            log                    factor                3.6866235643E+01      1.0000000000E-10      1.0000000000E+02       kp                    1.0000000000E+00      0.0000000000E+00      1          
kpkp205_mc1            log                    factor                2.7571502012E-04      1.0000000000E-10      1.0000000000E+02       kp                    1.0000000000E+00      0.0000000000E+00      1          
kpkp206_mc1            log                    factor                1.8986224825E+03      1.0000000000E-10      1.0000000000E+02       kp                    1.0000000000E+00      0.0000000000E+00      1          
kpkp207_mc1            log                    factor                5.9619963707E+06      1.0000000000E-10      1.0000000000E+02       kp                    1.0000000000E+00      0.0000000000E+00      1          
kpkp208_tn1            log                    factor                3.9662001338E-01      1.0000000000E-10      1.0000000000E+02       kp                    1.0000000000E+00      0.0000000000E+00      1          
kpkp209_ks1            log                    factor                7.7661152771E+00      1.0000000000E-10      1.0000000000E+02       kp                    1.0000000000E+00      0.0000000000E+00      1          
kpkp217_ts1            log                    factor                1.6483882615E+01      1.0000000000E-10      1.0000000000E+02       kp                    1.0000000000E+00      0.0000000000E+00      1          
kpkp218_ts1            log                    factor                1.7177531201E+04      1.0000000000E-10      1.0000000000E+02       kp                    1.0000000000E+00      0.0000000000E+00      1          
kpkp219_ts1            log                    factor                1.1359318162E+00      1.0000000000E-10      1.0000000000E+02       kp                    1.0000000000E+00      0.0000000000E+00      1          
kpkp220_br1            log                    factor                5.1207478189E-03      1.0000000000E-10      1.0000000000E+02       kp                    1.0000000000E+00      0.0000000000E+00      1          
kpkp221_br1            log                    factor                2.4892086823E-02      1.0000000000E-10      1.0000000000E+02       kp                    1.0000000000E+00      0.0000000000E+00      1          
kpkp222_br1            log                    factor                4.6470628736E-01      1.0000000000E-10      1.0000000000E+02       kp                    1.0000000000E+00      0.0000000000E+00      1          
kpkp223_br1            log                    factor                8.9428923254E+05      1.0000000000E-10      1.0000000000E+02       kp                    1.0000000000E+00      0.0000000000E+00      1          
kpkp224_ks1            log                    factor                1.7788207979E+02      1.0000000000E-10      1.0000000000E+02       kp                    1.0000000000E+00      0.0000000000E+00      1          
kpkp225_ks1            log                    factor                3.3650068954E-02      1.0000000000E-10      1.0000000000E+02       kp                    1.0000000000E+00      0.0000000000E+00      1          
kpkp235_br1            log                    factor                1.4008975289E+02      1.0000000000E-10      1.0000000000E+02       kp                    1.0000000000E+00      0.0000000000E+00      1          
kpkp236_ts1            log                    factor                1.6213829392E+02      1.0000000000E-10      1.0000000000E+02       kp                    1.0000000000E+00      0.0000000000E+00      1          
kpkp237_br1            log                    factor                3.4001009201E+04      1.0000000000E-10      1.0000000000E+02       kp                    1.0000000000E+00      0.0000000000E+00      1          
kpkp238_br1            log                    factor                5.8427837922E+01      1.0000000000E-10      1.0000000000E+02       kp                    1.0000000000E+00      0.0000000000E+00      1          
kpkp239_br1            log                    factor                3.0122636019E+02      1.0000000000E-10      1.0000000000E+02       kp                    1.0000000000E+00      0.0000000000E+00      1          
kpkp240_br1            log                    factor                3.6518876567E+01      1.0000000000E-10      1.0000000000E+02       kp                    1.0000000000E+00      0.0000000000E+00      1          
kpkp253_br1            log                    factor                1.2176419778E+05      1.0000000000E-10      1.0000000000E+02       kp                    1.0000000000E+00      0.0000000000E+00      1          
kpkp255_br1            log                    factor                1.2127909412E-02      1.0000000000E-10      1.0000000000E+02       kp                    1.0000000000E+00      0.0000000000E+00      1          
kpkp256_br1            log                    factor                2.5625761269E-01      1.0000000000E-10      1.0000000000E+02       kp                    1.0000000000E+00      0.0000000000E+00      1          
kpkp162_br1            log                    factor                1.8080360427E-01      1.0000000000E-10      1.0000000000E+02       kp                    1.0000000000E+00      0.0000000000E+00      1          
kpkp178_br1            log                    factor                2.7938191159E+06      1.0000000000E-10      1.0000000000E+02       kp                    1.0000000000E+00      0.0000000000E+00      1          
kpkp179_br1            log                    factor                9.6086689235E-04      1.0000000000E-10      1.0000000000E+02       kp                    1.0000000000E+00      0.0000000000E+00      1          
kpkp194_br1            log                    factor                6.7806028909E-04      1.0000000000E-10      1.0000000000E+02       kp                    1.0000000000E+00      0.0000000000E+00      1          
kpkp195_br1            log                    factor                5.6671757222E-05      1.0000000000E-10      1.0000000000E+02       kp                    1.0000000000E+00      0.0000000000E+00      1          
kpkp196_br1            log                    factor                3.1890630247E+03      1.0000000000E-10      1.0000000000E+02       kp                    1.0000000000E+00      0.0000000000E+00      1          
kpkp210_br1            log                    factor                2.0379443554E+02      1.0000000000E-10      1.0000000000E+02       kp                    1.0000000000E+00      0.0000000000E+00      1          
kpkp211_br1            log                    factor                4.9083399431E+02      1.0000000000E-10      1.0000000000E+02       kp                    1.0000000000E+00      0.0000000000E+00      1          
kpkp212_br1            log                    factor                2.8405598521E-03      1.0000000000E-10      1.0000000000E+02       kp                    1.0000000000E+00      0.0000000000E+00      1          
kpkp226_br1            log                    factor                9.8695783679E-05      1.0000000000E-10      1.0000000000E+02       kp                    1.0000000000E+00      0.0000000000E+00      1          
kpkp227_br1            log                    factor                3.3052030423E+02      1.0000000000E-10      1.0000000000E+02       kp                    1.0000000000E+00      0.0000000000E+00      1          
kpkp228_br1            log                    factor                3.2570406653E+02      1.0000000000E-10      1.0000000000E+02       kp                    1.0000000000E+00      0.0000000000E+00      1          
kpkp241_br1            log                    factor                1.4013363092E+04      1.0000000000E-10      1.0000000000E+02       kp                    1.0000000000E+00      0.0000000000E+00      1          
kpkp242_br1            log                    factor                7.5983406811E+05      1.0000000000E-10      1.0000000000E+02       kp                    1.0000000000E+00      0.0000000000E+00      1          
kpkp243_br1            log                    factor                1.0370251279E-07      1.0000000000E-10      1.0000000000E+02       kp                    1.0000000000E+00      0.0000000000E+00      1          
kpkp180_br1            log                    factor                7.5004947599E-01      1.0000000000E-10      1.0000000000E+02       kp                    1.0000000000E+00      0.0000000000E+00      1          
kpkp197_br1            log                    factor                3.1275435234E-03      1.0000000000E-10      1.0000000000E+02       kp                    1.0000000000E+00      0.0000000000E+00      1          
kpkp198_br1            log                    factor                2.0661507598E-02      1.0000000000E-10      1.0000000000E+02       kp                    1.0000000000E+00      0.0000000000E+00      1          
kpkp213_br1            log                    factor                1.4340876647E-02      1.0000000000E-10      1.0000000000E+02       kp                    1.0000000000E+00      0.0000000000E+00      1          
kpkp214_br1            log                    factor                4.6200225785E+02      1.0000000000E-10      1.0000000000E+02       kp                    1.0000000000E+00      0.0000000000E+00      1          
kpkp215_br1            log                    factor                7.0996589865E-05      1.0000000000E-10      1.0000000000E+02       kp                    1.0000000000E+00      0.0000000000E+00      1          
kpkp216_ts1            log                    factor                1.2945448364E-01      1.0000000000E-10      1.0000000000E+02       kp                    1.0000000000E+00      0.0000000000E+00      1          
kpkp229_br1            log                    factor                2.7381891155E+00      1.0000000000E-10      1.0000000000E+02       kp                    1.0000000000E+00      0.0000000000E+00      1          
kpkp230_br1            log                    factor                4.2167188289E+04      1.0000000000E-10      1.0000000000E+02       kp                    1.0000000000E+00      0.0000000000E+00      1          
kpkp231_ts1            log                    factor                3.1538133907E+03      1.0000000000E-10      1.0000000000E+02       kp                    1.0000000000E+00      0.0000000000E+00      1          
kpkp232_ts1            log                    factor                2.5199565486E+03      1.0000000000E-10      1.0000000000E+02       kp                    1.0000000000E+00      0.0000000000E+00      1          
kpkp233_ts1            log                    factor                2.1190211881E+00      1.0000000000E-10      1.0000000000E+02       kp                    1.0000000000E+00      0.0000000000E+00      1          
kpkp234_ts1            log                    factor                2.4600962719E-05      1.0000000000E-10      1.0000000000E+02       kp                    1.0000000000E+00      0.0000000000E+00      1          
kpkp245_br1            log                    factor                2.6518595725E-02      1.0000000000E-10      1.0000000000E+02       kp                    1.0000000000E+00      0.0000000000E+00      1          
kpkp246_br1            log                    factor                8.0796645171E+00      1.0000000000E-10      1.0000000000E+02       kp                    1.0000000000E+00      0.0000000000E+00      1          
kpkp247_ts1            log                    factor                1.7496112878E+03      1.0000000000E-10      1.0000000000E+02       kp                    1.0000000000E+00      0.0000000000E+00      1          
kpkp248_ts1            log                    factor                5.2362493440E+05      1.0000000000E-10      1.0000000000E+02       kp                    1.0000000000E+00      0.0000000000E+00      1          
kpkp249_ts1            log                    factor                2.1181635293E+05      1.0000000000E-10      1.0000000000E+02       kp                    1.0000000000E+00      0.0000000000E+00      1          
kpkp250_ts1            log                    factor                1.0754865730E+04      1.0000000000E-10      1.0000000000E+02       kp                    1.0000000000E+00      0.0000000000E+00      1          
kpkp251_ts1            log                    factor                6.5561785699E-02      1.0000000000E-10      1.0000000000E+02       kp                    1.0000000000E+00      0.0000000000E+00      1          
kpkp252_ts1            log                    factor                3.2746970611E-02      1.0000000000E-10      1.0000000000E+02       kp                    1.0000000000E+00      0.0000000000E+00      1          
kpkp254_br1            log                    factor                4.6813009476E-02      1.0000000000E-10      1.0000000000E+02       kp                    1.0000000000E+00      0.0000000000E+00      1          
kpkp257_ts1            log                    factor                6.4145456633E-02      1.0000000000E-10      1.0000000000E+02       kp                    1.0000000000E+00      0.0000000000E+00      1          
kpkp258_br1            log                    factor                8.4641347308E+02      1.0000000000E-10      1.0000000000E+02       kp                    1.0000000000E+00      0.0000000000E+00      1          
kpkp259_br1            log                    factor                1.7971030838E-07      1.0000000000E-10      1.0000000000E+02       kp                    1.0000000000E+00      0.0000000000E+00      1          
kpkp260_br1            log                    factor                1.2961283420E-02      1.0000000000E-10      1.0000000000E+02       kp                    1.0000000000E+00      0.0000000000E+00      1          
kpkp261_br1            log                    factor                1.5121567632E-01      1.0000000000E-10      1.0000000000E+02       kp                    1.0000000000E+00      0.0000000000E+00      1          
kpkp262_ts1            log                    factor                2.0149877781E-04      1.0000000000E-10      1.0000000000E+02       kp                    1.0000000000E+00      0.0000000000E+00      1          
kpkp263_ts1            log                    factor                4.7815439236E+04      1.0000000000E-10      1.0000000000E+02       kp                    1.0000000000E+00      0.0000000000E+00      1          
kpkp264_ts1            log                    factor                1.1842240139E-01      1.0000000000E-10      1.0000000000E+02       kp                    1.0000000000E+00      0.0000000000E+00      1          
kpkp265_ts1            log                    factor                3.1226223898E+07      1.0000000000E-10      1.0000000000E+02       kp                    1.0000000000E+00      0.0000000000E+00      1          
kpkp266_ts1            log                    factor                6.7430385845E-03      1.0000000000E-10      1.0000000000E+02       kp                    1.0000000000E+00      0.0000000000E+00      1          
kpkp267_ts1            log                    factor                3.2676681562E+01      1.0000000000E-10      1.0000000000E+02       kp                    1.0000000000E+00      0.0000000000E+00      1          
kpkp268_ts1            log                    factor                3.0025556607E+01      1.0000000000E-10      1.0000000000E+02       kp                    1.0000000000E+00      0.0000000000E+00      1          
kpkp269_ts1            log                    factor                4.7613571740E+02      1.0000000000E-10      1.0000000000E+02       kp                    1.0000000000E+00      0.0000000000E+00      1          
kpkp270_ts1            log                    factor                1.4861545433E+04      1.0000000000E-10      1.0000000000E+02       kp                    1.0000000000E+00      0.0000000000E+00      1          
kpkp271_ts1            log                    factor                6.5526686017E-02      1.0000000000E-10      1.0000000000E+02       kp                    1.0000000000E+00      0.0000000000E+00      1          
kpkp272_ts1            log                    factor                1.1943941640E+04      1.0000000000E-10      1.0000000000E+02       kp                    1.0000000000E+00      0.0000000000E+00      1          
kpkp273_br1            log                    factor                1.3361093795E+01      1.0000000000E-10      1.0000000000E+02       kp                    1.0000000000E+00      0.0000000000E+00      1          
kpkp274_br1            log                    factor                5.8431900158E+01      1.0000000000E-10      1.0000000000E+02       kp                    1.0000000000E+00      0.0000000000E+00      1          
kpkp275_ts1            log                    factor                4.2336425178E+00      1.0000000000E-10      1.0000000000E+02       kp                    1.0000000000E+00      0.0000000000E+00      1          
kpkp276_ts1            log                    factor                1.4965155191E+04      1.0000000000E-10      1.0000000000E+02       kp                    1.0000000000E+00      0.0000000000E+00      1          
kpkp277_ts1            log                    factor                4.4231076122E+02      1.0000000000E-10      1.0000000000E+02       kp                    1.0000000000E+00      0.0000000000E+00      1          
kpkp278_ts1            log                    factor                1.8552802869E-06      1.0000000000E-10      1.0000000000E+02       kp                    1.0000000000E+00      0.0000000000E+00      1          
kpkp279_ts1            log                    factor                2.2053336088E-02      1.0000000000E-10      1.0000000000E+02       kp                    1.0000000000E+00      0.0000000000E+00      1          
kpkp280_ts1            log                    factor                1.4515442630E+04      1.0000000000E-10      1.0000000000E+02       kp                    1.0000000000E+00      0.0000000000E+00      1          
kpkp281_ts1            log                    factor                1.5042144404E+02      1.0000000000E-10      1.0000000000E+02       kp                    1.0000000000E+00      0.0000000000E+00      1          
kpkp282_ts1            log                    factor                1.2715776770E+05      1.0000000000E-10      1.0000000000E+02       kp                    1.0000000000E+00      0.0000000000E+00      1          
kpkp283_ts1            log                    factor                1.5608955361E+00      1.0000000000E-10      1.0000000000E+02       kp                    1.0000000000E+00      0.0000000000E+00      1          
kpkp284_ts1            log                    factor                4.1823204938E-03      1.0000000000E-10      1.0000000000E+02       kp                    1.0000000000E+00      0.0000000000E+00      1          
kpkp285_ts1            log                    factor                5.9012694036E+00      1.0000000000E-10      1.0000000000E+02       kp                    1.0000000000E+00      0.0000000000E+00      1          
kpkp286_ts1            log                    factor                2.9993985600E-01      1.0000000000E-10      1.0000000000E+02       kp                    1.0000000000E+00      0.0000000000E+00      1          
kpkp287_ts1            log                    factor                2.1249352993E+02      1.0000000000E-10      1.0000000000E+02       kp                    1.0000000000E+00      0.0000000000E+00      1          
kpkp288_ts1            log                    factor                4.3361824715E-01      1.0000000000E-10      1.0000000000E+02       kp                    1.0000000000E+00      0.0000000000E+00      1          
kpkp289_ts1            log                    factor                4.5519028281E+02      1.0000000000E-10      1.0000000000E+02       kp                    1.0000000000E+00      0.0000000000E+00      1          