pcf
* control data
restart regularisation
2021 1236 9 6053 111 
52  4  single  point  1  0  0
1.000000e+001  -2.000000e+000  3.000000e-001  1.000000e-002  7 999
1.000000e+001  1.000000e+001  1.000000e-003
1.000000e-001 noaui
-1  1.000000e-002  3  3  1.000000e-002  3
0  0  0
* parameter groups
Kp     relative   1.000000e-002  0.000000e+000  switch  2.000000e+000  parabolic
Kz     relative   1.000000e-002  0.000000e+000  switch  2.000000e+000  parabolic
Rcond  relative   1.000000e-002  0.000000E+000  switch  2.000000e+000  parabolic
BCMult relative  1.000000e-002  0.000000E+000  switch  2.000000e+000  parabolic
DSP  relative  1.000000e-002  0.000000E+000  switch  2.000000e+000  parabolic
KT   relative  1.000000e-002  0.000000E+000  switch  2.000000e+000  parabolic
POR  relative  1.000000e-002  0.000000E+000  switch  2.000000e+000  parabolic
Kd  relative  1.000000e-002  0.000000E+000  switch  2.000000e+000  parabolic
RHOB  relative  1.000000e-002  0.000000E+000  switch  2.000000e+000  parabolic
* parameter data
     KpZ23L2        log     factor 125.00000000   0.00001000 10000000000.00000000           kp   1.00000000   0.00000000   1
     KpZ23L3       tied     factor 125.00000000   0.00001000 10000000000.00000000           kp   1.00000000   0.00000000   1
     KpZ23L6        log     factor 125.00000000   0.00001000 10000000000.00000000           kp   1.00000000   0.00000000   1
     KpZ23L5       tied     factor 125.00000000   0.00001000 10000000000.00000000           kp   1.00000000   0.00000000   1
     KpZ23L4       tied     factor 125.00000000   0.00001000 10000000000.00000000           kp   1.00000000   0.00000000   1
     KpZ22L6        log     factor 125.00000000   0.00001000 10000000000.00000000           kp   1.00000000   0.00000000   1
     KpZ24L6        log     factor 125.00000000   0.00001000 10000000000.00000000           kp   1.00000000   0.00000000   1
    KpZ24L10        log     factor 125.00000000   0.00001000 10000000000.00000000           kp   1.00000000   0.00000000   1
     KpZ24L9       tied     factor 125.00000000   0.00001000 10000000000.00000000           kp   1.00000000   0.00000000   1
     KpZ24L8       tied     factor 125.00000000   0.00001000 10000000000.00000000           kp   1.00000000   0.00000000   1
     KpZ24L7       tied     factor 125.00000000   0.00001000 10000000000.00000000           kp   1.00000000   0.00000000   1
     KpZ25L6        log     factor 125.00000000   0.00001000 10000000000.00000000           kp   1.00000000   0.00000000   1
     KpZ25L7       tied     factor 125.00000000   0.00001000 10000000000.00000000           kp   1.00000000   0.00000000   1
     KpZ25L8       tied     factor 125.00000000   0.00001000 10000000000.00000000           kp   1.00000000   0.00000000   1
    KpZ25L14        log     factor 125.00000000   0.00001000 10000000000.00000000           kp   1.00000000   0.00000000   1
    KpZ25L13       tied     factor 125.00000000   0.00001000 10000000000.00000000           kp   1.00000000   0.00000000   1
    KpZ25L12       tied     factor 125.00000000   0.00001000 10000000000.00000000           kp   1.00000000   0.00000000   1
    KpZ25L11       tied     factor 125.00000000   0.00001000 10000000000.00000000           kp   1.00000000   0.00000000   1
    KpZ25L10       tied     factor 125.00000000   0.00001000 10000000000.00000000           kp   1.00000000   0.00000000   1
     KpZ25L9       tied     factor 125.00000000   0.00001000 10000000000.00000000           kp   1.00000000   0.00000000   1
     KpZ26L2        log     factor 125.00000000   0.00001000 10000000000.00000000           kp   1.00000000   0.00000000   1
    KpZ26L14        log     factor 125.00000000   0.00001000 10000000000.00000000           kp   1.00000000   0.00000000   1
    KpZ26L13       tied     factor 125.00000000   0.00001000 10000000000.00000000           kp   1.00000000   0.00000000   1
    KpZ26L12       tied     factor 125.00000000   0.00001000 10000000000.00000000           kp   1.00000000   0.00000000   1
    KpZ26L11       tied     factor 125.00000000   0.00001000 10000000000.00000000           kp   1.00000000   0.00000000   1
    KpZ26L10       tied     factor 125.00000000   0.00001000 10000000000.00000000           kp   1.00000000   0.00000000   1
     KpZ26L9       tied     factor 125.00000000   0.00001000 10000000000.00000000           kp   1.00000000   0.00000000   1
     KpZ26L8       tied     factor 125.00000000   0.00001000 10000000000.00000000           kp   1.00000000   0.00000000   1
     KpZ26L7       tied     factor 125.00000000   0.00001000 10000000000.00000000           kp   1.00000000   0.00000000   1
     KpZ26L6       tied     factor 125.00000000   0.00001000 10000000000.00000000           kp   1.00000000   0.00000000   1
     KpZ26L5       tied     factor 125.00000000   0.00001000 10000000000.00000000           kp   1.00000000   0.00000000   1
     KpZ26L4       tied     factor 125.00000000   0.00001000 10000000000.00000000           kp   1.00000000   0.00000000   1
     KpZ26L3       tied     factor 125.00000000   0.00001000 10000000000.00000000           kp   1.00000000   0.00000000   1
     KpZ27L6        log     factor 125.00000000   0.00001000 10000000000.00000000           kp   1.00000000   0.00000000   1
     KpZ27L7       tied     factor 125.00000000   0.00001000 10000000000.00000000           kp   1.00000000   0.00000000   1
     KpZ27L8       tied     factor 125.00000000   0.00001000 10000000000.00000000           kp   1.00000000   0.00000000   1
     KpZ27L9       tied     factor 125.00000000   0.00001000 10000000000.00000000           kp   1.00000000   0.00000000   1
    KpZ27L10       tied     factor 125.00000000   0.00001000 10000000000.00000000           kp   1.00000000   0.00000000   1
    KpZ27L11       tied     factor 125.00000000   0.00001000 10000000000.00000000           kp   1.00000000   0.00000000   1
    KpZ27L12       tied     factor 125.00000000   0.00001000 10000000000.00000000           kp   1.00000000   0.00000000   1
    KpZ27L13       tied     factor 125.00000000   0.00001000 10000000000.00000000           kp   1.00000000   0.00000000   1
    KpZ27L14       tied     factor 125.00000000   0.00001000 10000000000.00000000           kp   1.00000000   0.00000000   1
    KpZ27L15        log     factor 125.00000000   0.00001000 10000000000.00000000           kp   1.00000000   0.00000000   1
     KpZ28L6        log     factor 125.00000000   0.00001000 10000000000.00000000           kp   1.00000000   0.00000000   1
    KpZ28L17        log     factor 125.00000000   0.00001000 10000000000.00000000           kp   1.00000000   0.00000000   1
    KpZ28L16       tied     factor 125.00000000   0.00001000 10000000000.00000000           kp   1.00000000   0.00000000   1
    KpZ28L15       tied     factor 125.00000000   0.00001000 10000000000.00000000           kp   1.00000000   0.00000000   1
    KpZ28L14       tied     factor 125.00000000   0.00001000 10000000000.00000000           kp   1.00000000   0.00000000   1
    KpZ28L13       tied     factor 125.00000000   0.00001000 10000000000.00000000           kp   1.00000000   0.00000000   1
    KpZ28L12       tied     factor 125.00000000   0.00001000 10000000000.00000000           kp   1.00000000   0.00000000   1
    KpZ28L11       tied     factor 125.00000000   0.00001000 10000000000.00000000           kp   1.00000000   0.00000000   1
    KpZ28L10       tied     factor 125.00000000   0.00001000 10000000000.00000000           kp   1.00000000   0.00000000   1
     KpZ28L9       tied     factor 125.00000000   0.00001000 10000000000.00000000           kp   1.00000000   0.00000000   1
     KpZ28L8       tied     factor 125.00000000   0.00001000 10000000000.00000000           kp   1.00000000   0.00000000   1
     KpZ28L7       tied     factor 125.00000000   0.00001000 10000000000.00000000           kp   1.00000000   0.00000000   1
     KpZ29L2        log     factor 125.00000000   0.00001000 10000000000.00000000           kp   1.00000000   0.00000000   1
    KpZ29L13        log     factor 125.00000000   0.00001000 10000000000.00000000           kp   1.00000000   0.00000000   1
    KpZ29L12       tied     factor 125.00000000   0.00001000 10000000000.00000000           kp   1.00000000   0.00000000   1
    KpZ29L11       tied     factor 125.00000000   0.00001000 10000000000.00000000           kp   1.00000000   0.00000000   1
    KpZ29L10       tied     factor 125.00000000   0.00001000 10000000000.00000000           kp   1.00000000   0.00000000   1
     KpZ29L9       tied     factor 125.00000000   0.00001000 10000000000.00000000           kp   1.00000000   0.00000000   1
     KpZ29L8       tied     factor 125.00000000   0.00001000 10000000000.00000000           kp   1.00000000   0.00000000   1
     KpZ29L7       tied     factor 125.00000000   0.00001000 10000000000.00000000           kp   1.00000000   0.00000000   1
     KpZ29L6       tied     factor 125.00000000   0.00001000 10000000000.00000000           kp   1.00000000   0.00000000   1
     KpZ29L5       tied     factor 125.00000000   0.00001000 10000000000.00000000           kp   1.00000000   0.00000000   1
     KpZ29L4       tied     factor 125.00000000   0.00001000 10000000000.00000000           kp   1.00000000   0.00000000   1
     KpZ29L3       tied     factor 125.00000000   0.00001000 10000000000.00000000           kp   1.00000000   0.00000000   1
     KpZ30L6        log     factor 125.00000000   0.00001000 10000000000.00000000           kp   1.00000000   0.00000000   1
    KpZ30L15        log     factor 125.00000000   0.00001000 10000000000.00000000           kp   1.00000000   0.00000000   1
    KpZ30L14       tied     factor 125.00000000   0.00001000 10000000000.00000000           kp   1.00000000   0.00000000   1
    KpZ30L13       tied     factor 125.00000000   0.00001000 10000000000.00000000           kp   1.00000000   0.00000000   1
    KpZ30L12       tied     factor 125.00000000   0.00001000 10000000000.00000000           kp   1.00000000   0.00000000   1
    KpZ30L11       tied     factor 125.00000000   0.00001000 10000000000.00000000           kp   1.00000000   0.00000000   1
    KpZ30L10       tied     factor 125.00000000   0.00001000 10000000000.00000000           kp   1.00000000   0.00000000   1
     KpZ30L9       tied     factor 125.00000000   0.00001000 10000000000.00000000           kp   1.00000000   0.00000000   1
     KpZ30L8       tied     factor 125.00000000   0.00001000 10000000000.00000000           kp   1.00000000   0.00000000   1
     KpZ30L7       tied     factor 125.00000000   0.00001000 10000000000.00000000           kp   1.00000000   0.00000000   1
     KpZ31L6        log     factor 125.00000000   0.00001000 10000000000.00000000           kp   1.00000000   0.00000000   1
    KpZ31L12        log     factor 125.00000000   0.00001000 10000000000.00000000           kp   1.00000000   0.00000000   1
    KpZ31L11       tied     factor 125.00000000   0.00001000 10000000000.00000000           kp   1.00000000   0.00000000   1
    KpZ31L10       tied     factor 125.00000000   0.00001000 10000000000.00000000           kp   1.00000000   0.00000000   1
     KpZ31L9       tied     factor 125.00000000   0.00001000 10000000000.00000000           kp   1.00000000   0.00000000   1
     KpZ31L7       tied     factor 125.00000000   0.00001000 10000000000.00000000           kp   1.00000000   0.00000000   1
     KpZ31L8       tied     factor 125.00000000   0.00001000 10000000000.00000000           kp   1.00000000   0.00000000   1
     KpZ2L11        log     factor  38.20000000   0.00001000 10000000000.00000000           kp   1.00000000   0.00000000   1
      KpZ2L1        log     factor  38.20000000   0.00001000 10000000000.00000000           kp   1.00000000   0.00000000   1
         Kp1        log     factor 100.00000000   0.00001000 10000000000.00000000           kp   1.00000000   0.00000000   1
         Kp2        log     factor 100.00000000   0.00001000 10000000000.00000000           kp   1.00000000   0.00000000   1
         Kp3        log     factor 100.00000000   0.00001000 10000000000.00000000           kp   1.00000000   0.00000000   1
         Kp4        log     factor 100.00000000   0.00001000 10000000000.00000000           kp   1.00000000   0.00000000   1
         Kp5        log     factor 100.00000000   0.00001000 10000000000.00000000           kp   1.00000000   0.00000000   1
         Kp6        log     factor 100.00000000   0.00001000 10000000000.00000000           kp   1.00000000   0.00000000   1
         Kp7        log     factor 100.00000000   0.00001000 10000000000.00000000           kp   1.00000000   0.00000000   1
         Kp8        log     factor 100.00000000   0.00001000 10000000000.00000000           kp   1.00000000   0.00000000   1
         Kp9        log     factor 100.00000000   0.00001000 10000000000.00000000           kp   1.00000000   0.00000000   1
        Kp10        log     factor 100.00000000   0.00001000 10000000000.00000000           kp   1.00000000   0.00000000   1
        Kp11        log     factor 100.00000000   0.00001000 10000000000.00000000           kp   1.00000000   0.00000000   1
        Kp12        log     factor 100.00000000   0.00001000 10000000000.00000000           kp   1.00000000   0.00000000   1
        Kp13        log     factor 100.00000000   0.00001000 10000000000.00000000           kp   1.00000000   0.00000000   1
        Kp14        log     factor 100.00000000   0.00001000 10000000000.00000000           kp   1.00000000   0.00000000   1
        Kp15        log     factor 100.00000000   0.00001000 10000000000.00000000           kp   1.00000000   0.00000000   1
        Kp16        log     factor 100.00000000   0.00001000 10000000000.00000000           kp   1.00000000   0.00000000   1
        Kp17        log     factor 100.00000000   0.00001000 10000000000.00000000           kp   1.00000000   0.00000000   1
        Kp18        log     factor 100.00000000   0.00001000 10000000000.00000000           kp   1.00000000   0.00000000   1
        Kp19        log     factor 100.00000000   0.00001000 10000000000.00000000           kp   1.00000000   0.00000000   1
        Kp20        log     factor 100.00000000   0.00001000 10000000000.00000000           kp   1.00000000   0.00000000   1
        Kp21        log     factor 100.00000000   0.00001000 10000000000.00000000           kp   1.00000000   0.00000000   1
        Kp22        log     factor 100.00000000   0.00001000 10000000000.00000000           kp   1.00000000   0.00000000   1
        Kp23        log     factor 100.00000000   0.00001000 10000000000.00000000           kp   1.00000000   0.00000000   1
        Kp24        log     factor 100.00000000   0.00001000 10000000000.00000000           kp   1.00000000   0.00000000   1
        Kp25        log     factor 100.00000000   0.00001000 10000000000.00000000           kp   1.00000000   0.00000000   1
        Kp26        log     factor 100.00000000   0.00001000 10000000000.00000000           kp   1.00000000   0.00000000   1
        Kp27        log     factor 100.00000000   0.00001000 10000000000.00000000           kp   1.00000000   0.00000000   1
        Kp28        log     factor 100.00000000   0.00001000 10000000000.00000000           kp   1.00000000   0.00000000   1
        Kp29        log     factor 100.00000000   0.00001000 10000000000.00000000           kp   1.00000000   0.00000000   1
        Kp30        log     factor 100.00000000   0.00001000 10000000000.00000000           kp   1.00000000   0.00000000   1
        Kp31        log     factor 100.00000000   0.00001000 10000000000.00000000           kp   1.00000000   0.00000000   1
        Kp32        log     factor 100.00000000   0.00001000 10000000000.00000000           kp   1.00000000   0.00000000   1
        Kp33        log     factor 100.00000000   0.00001000 10000000000.00000000           kp   1.00000000   0.00000000   1
        Kp34        log     factor 100.00000000   0.00001000 10000000000.00000000           kp   1.00000000   0.00000000   1
        Kp35        log     factor 100.00000000   0.00001000 10000000000.00000000           kp   1.00000000   0.00000000   1
        Kp36        log     factor 100.00000000   0.00001000 10000000000.00000000           kp   1.00000000   0.00000000   1
        Kp37        log     factor 100.00000000   0.00001000 10000000000.00000000           kp   1.00000000   0.00000000   1
        Kp38        log     factor 100.00000000   0.00001000 10000000000.00000000           kp   1.00000000   0.00000000   1
        Kp39        log     factor 100.00000000   0.00001000 10000000000.00000000           kp   1.00000000   0.00000000   1
        Kp40        log     factor 100.00000000   0.00001000 10000000000.00000000           kp   1.00000000   0.00000000   1
        Kp41        log     factor 100.00000000   0.00001000 10000000000.00000000           kp   1.00000000   0.00000000   1
        Kp42        log     factor 100.00000000   0.00001000 10000000000.00000000           kp   1.00000000   0.00000000   1
        Kp43        log     factor 100.00000000   0.00001000 10000000000.00000000           kp   1.00000000   0.00000000   1
        Kp44        log     factor 100.00000000   0.00001000 10000000000.00000000           kp   1.00000000   0.00000000   1
        Kp45        log     factor 100.00000000   0.00001000 10000000000.00000000           kp   1.00000000   0.00000000   1
        Kp46        log     factor 100.00000000   0.00001000 10000000000.00000000           kp   1.00000000   0.00000000   1
        Kp47        log     factor 100.00000000   0.00001000 10000000000.00000000           kp   1.00000000   0.00000000   1
        Kp48        log     factor 100.00000000   0.00001000 10000000000.00000000           kp   1.00000000   0.00000000   1
        Kp49        log     factor 100.00000000   0.00001000 10000000000.00000000           kp   1.00000000   0.00000000   1
        Kp50        log     factor 100.00000000   0.00001000 10000000000.00000000           kp   1.00000000   0.00000000   1
        Kp51        log     factor 100.00000000   0.00001000 10000000000.00000000           kp   1.00000000   0.00000000   1
        Kp52        log     factor 100.00000000   0.00001000 10000000000.00000000           kp   1.00000000   0.00000000   1
        Kp53        log     factor 100.00000000   0.00001000 10000000000.00000000           kp   1.00000000   0.00000000   1
        Kp54        log     factor 100.00000000   0.00001000 10000000000.00000000           kp   1.00000000   0.00000000   1
        Kp55        log     factor 100.00000000   0.00001000 10000000000.00000000           kp   1.00000000   0.00000000   1
        Kp56        log     factor 100.00000000   0.00001000 10000000000.00000000           kp   1.00000000   0.00000000   1
        Kp57        log     factor 100.00000000   0.00001000 10000000000.00000000           kp   1.00000000   0.00000000   1
        Kp58        log     factor 100.00000000   0.00001000 10000000000.00000000           kp   1.00000000   0.00000000   1
        Kp59        log     factor 100.00000000   0.00001000 10000000000.00000000           kp   1.00000000   0.00000000   1
        Kp60        log     factor 100.00000000   0.00001000 10000000000.00000000           kp   1.00000000   0.00000000   1
        Kp61        log     factor 100.00000000   0.00001000 10000000000.00000000           kp   1.00000000   0.00000000   1
        Kp62        log     factor 100.00000000   0.00001000 10000000000.00000000           kp   1.00000000   0.00000000   1
        Kp63        log     factor 100.00000000   0.00001000 10000000000.00000000           kp   1.00000000   0.00000000   1
        Kp64        log     factor 100.00000000   0.00001000 10000000000.00000000           kp   1.00000000   0.00000000   1
        Kp65        log     factor 100.00000000   0.00001000 10000000000.00000000           kp   1.00000000   0.00000000   1
        Kp66        log     factor 100.00000000   0.00001000 10000000000.00000000           kp   1.00000000   0.00000000   1
        Kp67        log     factor 100.00000000   0.00001000 10000000000.00000000           kp   1.00000000   0.00000000   1
        Kp68        log     factor 100.00000000   0.00001000 10000000000.00000000           kp   1.00000000   0.00000000   1
        Kp69        log     factor 100.00000000   0.00001000 10000000000.00000000           kp   1.00000000   0.00000000   1
        Kp70        log     factor 100.00000000   0.00001000 10000000000.00000000           kp   1.00000000   0.00000000   1
        Kp71        log     factor 100.00000000   0.00001000 10000000000.00000000           kp   1.00000000   0.00000000   1
        Kp72        log     factor 100.00000000   0.00001000 10000000000.00000000           kp   1.00000000   0.00000000   1
        Kp73        log     factor 100.00000000   0.00001000 10000000000.00000000           kp   1.00000000   0.00000000   1
        Kp74        log     factor 100.00000000   0.00001000 10000000000.00000000           kp   1.00000000   0.00000000   1
        Kp75        log     factor 100.00000000   0.00001000 10000000000.00000000           kp   1.00000000   0.00000000   1
        Kp76        log     factor 100.00000000   0.00001000 10000000000.00000000           kp   1.00000000   0.00000000   1
        Kp77        log     factor 100.00000000   0.00001000 10000000000.00000000           kp   1.00000000   0.00000000   1
        Kp78        log     factor 100.00000000   0.00001000 10000000000.00000000           kp   1.00000000   0.00000000   1
        Kp79        log     factor 100.00000000   0.00001000 10000000000.00000000           kp   1.00000000   0.00000000   1
        Kp80        log     factor 100.00000000   0.00001000 10000000000.00000000           kp   1.00000000   0.00000000   1
        Kp81        log     factor 100.00000000   0.00001000 10000000000.00000000           kp   1.00000000   0.00000000   1
        Kp82        log     factor 100.00000000   0.00001000 10000000000.00000000           kp   1.00000000   0.00000000   1
        Kp83        log     factor 100.00000000   0.00001000 10000000000.00000000           kp   1.00000000   0.00000000   1
        Kp84        log     factor 100.00000000   0.00001000 10000000000.00000000           kp   1.00000000   0.00000000   1
        Kp85        log     factor 100.00000000   0.00001000 10000000000.00000000           kp   1.00000000   0.00000000   1
        Kp86        log     factor 100.00000000   0.00001000 10000000000.00000000           kp   1.00000000   0.00000000   1
        Kp87        log     factor 100.00000000   0.00001000 10000000000.00000000           kp   1.00000000   0.00000000   1
        Kp88        log     factor 100.00000000   0.00001000 10000000000.00000000           kp   1.00000000   0.00000000   1
        Kp89        log     factor 100.00000000   0.00001000 10000000000.00000000           kp   1.00000000   0.00000000   1
        Kp90        log     factor 100.00000000   0.00001000 10000000000.00000000           kp   1.00000000   0.00000000   1
        Kp91        log     factor 100.00000000   0.00001000 10000000000.00000000           kp   1.00000000   0.00000000   1
        Kp92        log     factor 100.00000000   0.00001000 10000000000.00000000           kp   1.00000000   0.00000000   1
        Kp93        log     factor 100.00000000   0.00001000 10000000000.00000000           kp   1.00000000   0.00000000   1
        Kp94        log     factor 100.00000000   0.00001000 10000000000.00000000           kp   1.00000000   0.00000000   1
        Kp95        log     factor 100.00000000   0.00001000 10000000000.00000000           kp   1.00000000   0.00000000   1
        Kp96        log     factor 100.00000000   0.00001000 10000000000.00000000           kp   1.00000000   0.00000000   1
      KpZ2L2        log     factor  38.20000000   0.00001000 10000000000.00000000           kp   1.00000000   0.00000000   1
      KpZ2L3        log     factor  38.20000000   0.00001000 10000000000.00000000           kp   1.00000000   0.00000000   1
      KpZ2L4        log     factor  38.20000000   0.00001000 10000000000.00000000           kp   1.00000000   0.00000000   1
      KpZ2L5        log     factor  38.20000000   0.00001000 10000000000.00000000           kp   1.00000000   0.00000000   1
      KpZ2L6        log     factor  38.20000000   0.00001000 10000000000.00000000           kp   1.00000000   0.00000000   1
      KpZ2L7        log     factor  38.20000000   0.00001000 10000000000.00000000           kp   1.00000000   0.00000000   1
      KpZ2L8        log     factor  38.20000000   0.00001000 10000000000.00000000           kp   1.00000000   0.00000000   1
      KpZ2L9        log     factor  38.20000000   0.00001000 10000000000.00000000           kp   1.00000000   0.00000000   1
     KpZ2L20        log     factor  38.20000000   0.00001000 10000000000.00000000           kp   1.00000000   0.00000000   1
     KpZ2L19        log     factor  38.20000000   0.00001000 10000000000.00000000           kp   1.00000000   0.00000000   1
     KpZ2L18        log     factor  38.20000000   0.00001000 10000000000.00000000           kp   1.00000000   0.00000000   1
     KpZ2L17        log     factor  38.20000000   0.00001000 10000000000.00000000           kp   1.00000000   0.00000000   1
     KpZ2L16        log     factor  38.20000000   0.00001000 10000000000.00000000           kp   1.00000000   0.00000000   1
     KpZ2L15        log     factor  38.20000000   0.00001000 10000000000.00000000           kp   1.00000000   0.00000000   1
     KpZ2L14        log     factor  38.20000000   0.00001000 10000000000.00000000           kp   1.00000000   0.00000000   1
     KpZ2L13        log     factor  38.20000000   0.00001000 10000000000.00000000           kp   1.00000000   0.00000000   1
     KpZ2L12        log     factor  38.20000000   0.00001000 10000000000.00000000           kp   1.00000000   0.00000000   1
     KpZ2L10        log     factor  38.20000000   0.00001000 10000000000.00000000           kp   1.00000000   0.00000000   1
     KpZ3L21        log     factor  38.20000000   0.00001000 10000000000.00000000           kp   1.00000000   0.00000000   1
     KpZ3L22        log     factor  38.20000000   0.00001000 10000000000.00000000           kp   1.00000000   0.00000000   1
     KpZ3L23        log     factor  38.20000000   0.00001000 10000000000.00000000           kp   1.00000000   0.00000000   1
     KpZ3L24        log     factor  38.20000000   0.00001000 10000000000.00000000           kp   1.00000000   0.00000000   1
        Kp97       tied     factor 100.00000000   0.00001000 10000000000.00000000           kp   1.00000000   0.00000000   1
        Kp98       tied     factor 100.00000000   0.00001000 10000000000.00000000           kp   1.00000000   0.00000000   1
        Kp99       tied     factor 100.00000000   0.00001000 10000000000.00000000           kp   1.00000000   0.00000000   1
       Kp100       tied     factor 100.00000000   0.00001000 10000000000.00000000           kp   1.00000000   0.00000000   1
       Kp101       tied     factor 100.00000000   0.00001000 10000000000.00000000           kp   1.00000000   0.00000000   1
       Kp102       tied     factor 100.00000000   0.00001000 10000000000.00000000           kp   1.00000000   0.00000000   1
       Kp103       tied     factor 100.00000000   0.00001000 10000000000.00000000           kp   1.00000000   0.00000000   1
       Kp104       tied     factor 100.00000000   0.00001000 10000000000.00000000           kp   1.00000000   0.00000000   1
       Kp105       tied     factor 100.00000000   0.00001000 10000000000.00000000           kp   1.00000000   0.00000000   1
       Kp106       tied     factor 100.00000000   0.00001000 10000000000.00000000           kp   1.00000000   0.00000000   1
       Kp107       tied     factor 100.00000000   0.00001000 10000000000.00000000           kp   1.00000000   0.00000000   1
       Kp108       tied     factor 100.00000000   0.00001000 10000000000.00000000           kp   1.00000000   0.00000000   1
       Kp109       tied     factor 100.00000000   0.00001000 10000000000.00000000           kp   1.00000000   0.00000000   1
       Kp110       tied     factor 100.00000000   0.00001000 10000000000.00000000           kp   1.00000000   0.00000000   1
       Kp111       tied     factor 100.00000000   0.00001000 10000000000.00000000           kp   1.00000000   0.00000000   1
       Kp112       tied     factor 100.00000000   0.00001000 10000000000.00000000           kp   1.00000000   0.00000000   1
       Kp113       tied     factor 100.00000000   0.00001000 10000000000.00000000           kp   1.00000000   0.00000000   1
       Kp114       tied     factor 100.00000000   0.00001000 10000000000.00000000           kp   1.00000000   0.00000000   1
       Kp115       tied     factor 100.00000000   0.00001000 10000000000.00000000           kp   1.00000000   0.00000000   1
       Kp116       tied     factor 100.00000000   0.00001000 10000000000.00000000           kp   1.00000000   0.00000000   1
       Kp117       tied     factor 100.00000000   0.00001000 10000000000.00000000           kp   1.00000000   0.00000000   1
       Kp118       tied     factor 100.00000000   0.00001000 10000000000.00000000           kp   1.00000000   0.00000000   1
       Kp119       tied     factor 100.00000000   0.00001000 10000000000.00000000           kp   1.00000000   0.00000000   1
       Kp120       tied     factor 100.00000000   0.00001000 10000000000.00000000           kp   1.00000000   0.00000000   1
       Kp121       tied     factor 100.00000000   0.00001000 10000000000.00000000           kp   1.00000000   0.00000000   1