pcf
* control data
 restart regularisation
     152    4005       9    1938       8
3 3 double point 1 0 0
10.0 1.5 0.2 0.004 15   999  lamforgive
3.0 3.0 0.001
0.05   3
0 0.002 4 4 0.01 4
0 0 0 0
* singular value decomposition
0
16 10E-6
1
* parameter groups
hk1      RELATIVE 0.01  1.000  Switch   2.0 PARABOLIC
hk2      RELATIVE 0.01  0.200  Switch   2.0 PARABOLIC
vka_g    RELATIVE 0.10  0.000  Switch   2.0 PARABOLIC
ss_g     RELATIVE 0.10  0.000  Switch   2.0 PARABOLIC
sy_g     RELATIVE 0.01  0.005  Switch   2.0 PARABOLIC
rch_g    RELATIVE 0.01  0.000  Switch   2.0 PARABOLIC
evt_g    RELATIVE 0.01  0.000  Switch   2.0 PARABOLIC
rivcon_g RELATIVE 0.01  30.00  Switch   2.0 PARABOLIC
drncon_g RELATIVE 0.01  30.00  Switch   2.0 PARABOLIC
* parameter data
ko28752	log	factor    35.42469      2.10	100.00	hk1	1	0	1
ko28772	log	factor    15.97915      2.10	100.00	hk1	1	0	1
ko28792	log	factor    9.672050      2.10	100.00	hk1	1	0	1
ko31642	log	factor    9.296631      2.10	100.00	hk1	1	0	1
ko31662	log	factor    16.80418      2.10	100.00	hk1	1	0	1
ko34512	log	factor    9.240001      2.10	100.00	hk1	1	0	1
ko34532	log	factor    8.479784      2.10	100.00	hk1	1	0	1
ko34552	log	factor    6.066837      2.10	100.00	hk1	1	0	1
ko37282	log	factor    31.24057      2.10	100.00	hk1	1	0	1
ko37322	log	factor    38.40018      2.10	100.00	hk1	1	0	1
ko37402	log	factor    6.900738      2.10	100.00	hk1	1	0	1
ko37422	log	factor    7.588758      2.10	100.00	hk1	1	0	1
ko40152	log	factor    19.15766      2.10	100.00	hk1	1	0	1
ko40172	log	factor    22.59874      2.10	100.00	hk1	1	0	1
ko40192	log	factor    24.48404      2.10	100.00	hk1	1	0	1
ko40212	log	factor    19.42808      2.10	100.00	hk1	1	0	1
ko40232	log	factor    47.06889      2.10	100.00	hk1	1	0	1
ko40252	log	factor    31.30621      2.10	100.00	hk1	1	0	1
ko40272	log	factor    6.430251      2.10	100.00	hk1	1	0	1
ko40292	log	factor    6.197188      2.10	100.00	hk1	1	0	1
ko40312	log	factor    4.031550      2.10	100.00	hk1	1	0	1
ko43002	log	factor    68.42106      2.10	100.00	hk1	1	0	1
ko43012	log	factor    61.17046      2.10	100.00	hk1	1	0	1
ko43022	log	factor    17.37033      2.10	100.00	hk1	1	0	1
ko43042	log	factor    42.75108      2.10	100.00	hk1	1	0	1
ko43062	log	factor    40.53452      2.10	100.00	hk1	1	0	1
ko43082	log	factor    33.08934      2.10	100.00	hk1	1	0	1
ko43102	log	factor    32.50915      2.10	100.00	hk1	1	0	1
ko43122	log	factor    28.03231      2.10	100.00	hk1	1	0	1
ko43142	log	factor    22.93747      2.10	100.00	hk1	1	0	1
ko43162	log	factor    12.31112      2.10	100.00	hk1	1	0	1
ko43182	log	factor    11.27339      2.10	100.00	hk1	1	0	1
ko45912	log	factor    57.40803      2.10	100.00	hk1	1	0	1
ko45932	log	factor    63.25204      2.10	100.00	hk1	1	0	1
ko45952	log	factor    57.67674      2.10	100.00	hk1	1	0	1
ko45972	log	factor    39.91159      2.10	100.00	hk1	1	0	1
ko45992	log	factor    71.66772      2.10	100.00	hk1	1	0	1
ko46012	log	factor    57.99068      2.10	100.00	hk1	1	0	1
ko46032	log	factor    35.43990      2.10	100.00	hk1	1	0	1
ko46052	log	factor    17.83257      2.10	100.00	hk1	1	0	1
ko46072	log	factor    16.30125      2.10	100.00	hk1	1	0	1
ka9388	log	factor   0.6622436      0.104	10.00	hk2	1	0	1
ka11352	log	factor   0.1355002      0.104	10.00	hk2	1	0	1
ka11372	log	factor   0.1613956      0.104	10.00	hk2	1	0	1
ka11392	log	factor    2.307629      0.104	10.00	hk2	1	0	1
ka11412	log	factor   0.7684622      0.104	10.00	hk2	1	0	1
ka11432	log	factor   0.6109174      0.104	10.00	hk2	1	0	1
ka11452	log	factor   0.6032400      0.104	10.00	hk2	1	0	1
ka11472	log	factor    1.446661      0.104	10.00	hk2	1	0	1
ka11492	log	factor    3.467110      0.104	10.00	hk2	1	0	1
ka13932	log	factor   0.1648237      0.104	10.00	hk2	1	0	1
ka17092	log	factor   0.4148362      0.104	10.00	hk2	1	0	1
ka17112	log	factor   0.3206287      0.104	10.00	hk2	1	0	1
ka17132	log	factor    2.911273      0.104	10.00	hk2	1	0	1
ka17152	log	factor   0.1090309      0.104	10.00	hk2	1	0	1
ka17172	log	factor   0.8863629      0.104	10.00	hk2	1	0	1
ka17192	log	factor   0.8914323      0.104	10.00	hk2	1	0	1
ka17212	log	factor   0.1455844      0.104	10.00	hk2	1	0	1
ka17232	log	factor    1.627098      0.104	10.00	hk2	1	0	1
ka17252	log	factor    1.568077      0.104	10.00	hk2	1	0	1
ka17272	log	factor   0.2525254      0.104	10.00	hk2	1	0	1
ka22812	log	factor   0.6503792      0.104	10.00	hk2	1	0	1
ka22832	log	factor   0.4453539      0.104	10.00	hk2	1	0	1
ka22852	log	factor   0.8492449      0.104	10.00	hk2	1	0	1
ka22872	log	factor   0.1965497      0.104	10.00	hk2	1	0	1
ka22892	log	factor    1.706409      0.104	10.00	hk2	1	0	1
ka22912	log	factor   0.2164216      0.104	10.00	hk2	1	0	1
ka22932	log	factor    2.566141      0.104	10.00	hk2	1	0	1
ka22952	log	factor   0.9905717      0.104	10.00	hk2	1	0	1
ka22972	log	factor   0.4839081      0.104	10.00	hk2	1	0	1
ka22992	log	factor   0.1484959      0.104	10.00	hk2	1	0	1
ka23012	log	factor   0.4658584      0.104	10.00	hk2	1	0	1
ka23032	log	factor    1.536966      0.104	10.00	hk2	1	0	1
ka28572	log	factor   0.9958060      0.104	10.00	hk2	1	0	1
ka28592	log	factor    6.588749      0.104	10.00	hk2	1	0	1
ka28612	log	factor   0.5594472      0.104	10.00	hk2	1	0	1
ka28632	log	factor   0.4824081      0.104	10.00	hk2	1	0	1
ka28652	log	factor    1.254319      0.104	10.00	hk2	1	0	1
ka28672	log	factor    1.240674      0.104	10.00	hk2	1	0	1
ka28692	log	factor    1.111152      0.104	10.00	hk2	1	0	1
ka28712	log	factor   0.9330553      0.104	10.00	hk2	1	0	1
ka28732	log	factor    1.728566      0.104	10.00	hk2	1	0	1
ka28752	log	factor   0.5557537      0.104	10.00	hk2	1	0	1
ka28772	log	factor   0.7611561      0.104	10.00	hk2	1	0	1
ka28792	log	factor    8.266662      0.104	10.00	hk2	1	0	1
ka34312	log	factor   0.4438656      0.104	10.00	hk2	1	0	1
ka34332	log	factor   0.4643701      0.104	10.00	hk2	1	0	1
ka34352	log	factor   0.8009966      0.104	10.00	hk2	1	0	1
ka34372	log	factor    2.452672      0.104	10.00	hk2	1	0	1
ka34392	log	factor    1.145572      0.104	10.00	hk2	1	0	1
ka34412	log	factor   0.8342323      0.104	10.00	hk2	1	0	1
ka34432	log	factor    2.743419      0.104	10.00	hk2	1	0	1
ka34452	log	factor    1.799012      0.104	10.00	hk2	1	0	1
ka34472	log	factor    1.289161      0.104	10.00	hk2	1	0	1
ka34492	log	factor    1.069504      0.104	10.00	hk2	1	0	1
ka34512	log	factor   0.8642995      0.104	10.00	hk2	1	0	1
ka34532	log	factor   0.1707105      0.104	10.00	hk2	1	0	1
ka34552	log	factor    3.739527      0.104	10.00	hk2	1	0	1
ka36915	log	factor    1.006168      0.104	10.00	hk2	1	0	1
ka37479	log	factor    1.407330      0.104	10.00	hk2	1	0	1
ka40092	log	factor   0.2323166      0.104	10.00	hk2	1	0	1
ka40112	log	factor   0.5110749      0.104	10.00	hk2	1	0	1
ka40132	log	factor   0.4803733      0.104	10.00	hk2	1	0	1
ka40152	log	factor   0.4051044      0.104	10.00	hk2	1	0	1
ka40172	log	factor   0.5177752      0.104	10.00	hk2	1	0	1
ka40192	log	factor   0.7998868      0.104	10.00	hk2	1	0	1
ka40212	log	factor    2.127822      0.104	10.00	hk2	1	0	1
ka40232	log	factor    2.590330      0.104	10.00	hk2	1	0	1
ka40252	log	factor    1.666097      0.104	10.00	hk2	1	0	1
ka40272	log	factor   0.3483082      0.104	10.00	hk2	1	0	1
ka40292	log	factor   0.2794613      0.104	10.00	hk2	1	0	1
ka40312	log	factor   0.3412159      0.104	10.00	hk2	1	0	1
ka45872	log	factor    1.626732      0.104	10.00	hk2	1	0	1
ka45892	log	factor   0.5151427      0.104	10.00	hk2	1	0	1
ka45912	log	factor   0.6096238      0.104	10.00	hk2	1	0	1
ka45932	log	factor   0.3034520      0.104	10.00	hk2	1	0	1
ka45952	log	factor   0.3073151      0.104	10.00	hk2	1	0	1
ka45972	log	factor   0.7975734      0.104	10.00	hk2	1	0	1
ka45992	log	factor   0.3440484      0.104	10.00	hk2	1	0	1
ka46012	log	factor   0.3359558      0.104	10.00	hk2	1	0	1
ka46032	log	factor    1.899387      0.104	10.00	hk2	1	0	1
ka46052	log	factor    1.185690      0.104	10.00	hk2	1	0	1
ka46072	log	factor    4.424133      0.104	10.00	hk2	1	0	1
vka1_1      log    factor   4.8650590E-02  0.01         0.10       vka_g    1.0  0.0    1
vka2_1      log    factor   3.6739756E-03  0.001        0.10       vka_g    1.0  0.0    1
ss1_1       fixed  factor   2.0000000E-20  1.16e-20     5.79e-03   ss_g     1.0  0.0    1
ss2_1       fixed  factor   2.0000000E-20  1.16e-20     2.00e-02   ss_g     1.0  0.0    1
ss2_2       log    factor   1.6510303E-06  1.16e-8      2.00e-02   ss_g     1.0  0.0    1
sy1_1       log    factor   0.1533883      0.05         0.20       sy_g     1.0  0.0    1
sy2_1       log    factor   2.6586273E-02  0.01         0.10       sy_g     1.0  0.0    1
sy2_2       log    factor   1.8144254E-02  0.01         0.10       sy_g     1.0  0.0    1
rch1_1      none   factor   0.9986870      0.70000      1.300      rch_g    1.0  0.0    1
rch2_1      none   factor   0.7356247      0.70000      1.300      rch_g    1.0  0.0    1
rch2_2      none   factor   0.7012932      0.70000      1.300      rch_g    1.0  0.0    1
evt1_1      none   factor    1.008686      0.70000      1.30000    evt_g    1.0  0.0    1
blc         log    factor    1360.482      030.00e+00    5.00e+03   rivcon_g 1.0  0.0    1
lake_cr     log    factor    337.0108      030.00e+00    5.00e+03   rivcon_g 1.0  0.0    1
lwr_mr      log    factor   1233.1981      030.00e+00    5.00e+03   rivcon_g 1.0  0.0    1
lwr_vet     log    factor    208.7949      030.00e+00    5.00e+03   rivcon_g 1.0  0.0    1
lwr_vet_blw tied   factor    208.7949      030.00e+00    5.00e+03   rivcon_g 1.0  0.0    1
mr_cr       log    factor    1034.500      030.00e+00    5.00e+03   rivcon_g 1.0  0.0    1
por_cr      log    factor    289.6267      030.00e+00    5.00e+03   rivcon_g 1.0  0.0    1
wcc_bl      tied   factor    425.5290      030.00e+00    5.00e+03   rivcon_g 1.0  0.0    1
wcc_ogl     log    factor    425.5290      030.00e+00    5.00e+03   rivcon_g 1.0  0.0    1
wkc_wk      log    factor    203.7974      030.00e+00    5.00e+03   rivcon_g 1.0  0.0    1
wkc_wk_bl   log    factor    100.74426     030.00e+00    5.00e+03   rivcon_g 1.0  0.0    1
cra_cr      fixed  factor    10.00000      030.00e+00    5.00e+03   drncon_g 1.0  0.0    1
eag_n_cr    fixed  factor    10.00000      030.00e+00    5.00e+03   drncon_g 1.0  0.0    1
gra_cr      fixed  factor    10.00000      030.00e+00    5.00e+03   drncon_g 1.0  0.0    1
pass_cr     fixed  factor    10.00000      030.00e+00    5.00e+03   drncon_g 1.0  0.0    1
pot_cr      fixed  factor    10.00000      030.00e+00    5.00e+03   drncon_g 1.0  0.0    1
cot_cr      fixed  factor    10.00000      030.00e+00    5.00e+03   drncon_g 1.0  0.0    1
lwr_vet_blw lwr_vet
wcc_bl   wcc_ogl
* OBSERVATION GROUPS
 regul9a
 regul9o
head1obs_g
head2obs_g
head1nobs_g
head2nobs_g
rivobs_g
drnobs_g
* OBSERVATION DATA
OGLL_1_1	2914.3	0.50	head1obs_g
OGLL_1_2	2915.4	0.50	head1obs_g
OGLL_1_3	2912.7	0.50	head1obs_g
OGLL_1_4	2912	0.50	head1obs_g
OGLL_1_5	2909.7	0.50	head1obs_g
OGLL_1_6	2913.1	0.50	head1obs_g
OGLL_1_7	2910.9	0.50	head1obs_g
OGLL_1_8	2913.6	0.50	head1obs_g
OGLL_1_9	2912.7	0.50	head1obs_g
OGLL_1_10	2914.6	0.50	head1obs_g
OGLL_1_11	2911.2	0.50	head1obs_g
OGLL_1_12	2913.6	0.50	head1obs_g
OGLL_1_13	2910.5	0.50	head1obs_g
OGLL_1_14	2912.5	0.50	head1obs_g
OGLL_1_15	2912.4	0.50	head1obs_g
OGLL_1_16	2913.8	0.50	head1obs_g
OGLL_1_17	2911.9	0.50	head1obs_g
OGLL_1_18	2913.6	0.50	head1obs_g
OGLL_1_19	2911.6	0.50	head1obs_g
OGLL_1_20	2913.1	0.50	head1obs_g
OGLL_1_21	2898.3	0.50	head1obs_g
OGLL_1_22	2911	0.50	head1obs_g
OGLL_1_23	2910	0.50	head1obs_g
OGLL_1_24	2911.4	0.50	head1obs_g
OGLL_1_25	2911.7	0.50	head1obs_g
OGLL_1_26	2913.1	0.50	head1obs_g
OGLL_1_27	2912.2	0.50	head1obs_g
OGLL_1_28	2913.3	0.50	head1obs_g
OGLL_1_29	2912.8	0.50	head1obs_g
OGLL_1_30	2914.6	0.50	head1obs_g
OGLL_1_31	2909.5	0.50	head1obs_g
OGLL_1_32	2913.7	0.50	head1obs_g
OGLL_1_33	2914.5	0.50	head1obs_g
OGLL_1_34	2915.7	0.50	head1obs_g
OGLL_1_35	2914.1	0.50	head1obs_g
OGLL_1_36	2916.5	0.50	head1obs_g
OGLL_1_37	2918.2	0.50	head1obs_g
OGLL_1_38	2916.4	0.50	head1obs_g
OGLL_1_39	2916.6	0.50	head1obs_g
OGLL_1_40	2919.3	0.50	head1obs_g
OGLL_1_41	2918.5	0.50	head1obs_g
OGLL_1_42	2919	0.50	head1obs_g
OGLL_1_43	2917.7	0.50	head1obs_g
OGLL_1_44	2918.8	0.50	head1obs_g
OGLL_1_45	2917.1	0.50	head1obs_g
OGLL_1_46	2917.9	0.50	head1obs_g
OGLL_1_47	2915.7	0.50	head1obs_g
OGLL_1_48	2912.3	0.50	head1obs_g
OGLL_1_49	2912.8	0.50	head1obs_g
OGLL_1_50	2915	0.50	head1obs_g
OGLL_1_51	2904.2	0.50	head1obs_g
OGLL_1_52	2913.8	0.50	head1obs_g
OGLL_1_53	2912.9	0.50	head1obs_g
OGLL_1_54	2911.5	0.50	head1obs_g
OGLL_1_55	2911.8	0.50	head1obs_g
OGLL_1_56	2912.5	0.50	head1obs_g
OGLL_1_57	2911	0.50	head1obs_g
OGLL_1_58	2912.4	0.50	head1obs_g
OGLL_1_59	2912.1	0.50	head1obs_g
OGLL_1_60	2913.6	0.50	head1obs_g
OGLL_2_1	2963.6	0.50	head1obs_g
OGLL_2_2	2960.5	0.50	head1obs_g
OGLL_2_3	2961.9	0.50	head1obs_g
OGLL_2_4	2960.2	0.50	head1obs_g
OGLL_2_5	2961.8	0.50	head1obs_g
OGLL_2_6	2961.5	0.50	head1obs_g
OGLL_2_7	2962.8	0.50	head1obs_g
OGLL_2_8	2962.8	0.50	head1obs_g
OGLL_2_9	2963.8	0.50	head1obs_g
OGLL_2_10	2962.2	0.50	head1obs_g
OGLL_2_11	2963.4	0.50	head1obs_g
OGLL_2_12	2961.6	0.50	head1obs_g
OGLL_2_13	2962.4	0.50	head1obs_g
OGLL_2_14	2962.3	0.50	head1obs_g
OGLL_2_15	2963.7	0.50	head1obs_g
OGLL_2_16	2962.5	0.50	head1obs_g
OGLL_2_17	2962.9	0.50	head1obs_g
OGLL_2_18	2961.7	0.50	head1obs_g
OGLL_2_19	2963.8	0.50	head1obs_g
OGLL_2_20	2960	0.50	head1obs_g
OGLL_2_21	2962.3	0.50	head1obs_g
OGLL_2_22	2960.5	0.50	head1obs_g
OGLL_2_23	2962.3	0.50	head1obs_g
OGLL_2_24	2961.2	0.50	head1obs_g
OGLL_2_25	2962.9	0.50	head1obs_g
OGLL_2_26	2961.6	0.50	head1obs_g
OGLL_2_27	2962.8	0.50	head1obs_g
OGLL_2_28	2961.8	0.50	head1obs_g
OGLL_2_29	2963.4	0.50	head1obs_g
OGLL_2_30	2961.6	0.50	head1obs_g
OGLL_2_31	2963.4	0.50	head1obs_g
OGLL_2_32	2962.2	0.50	head1obs_g
OGLL_2_33	2964.4	0.50	head1obs_g
OGLL_2_34	2963	0.50	head1obs_g
OGLL_2_35	2965	0.50	head1obs_g
OGLL_2_36	2964.7	0.50	head1obs_g
OGLL_2_37	2966.5	0.50	head1obs_g
OGLL_2_38	2964.4	0.50	head1obs_g
OGLL_2_39	2966.2	0.50	head1obs_g
OGLL_2_40	2965.5	0.50	head1obs_g
OGLL_2_41	2966.3	0.50	head1obs_g
OGLL_2_42	2965.2	0.50	head1obs_g
OGLL_2_43	2966	0.50	head1obs_g
OGLL_2_44	2964.1	0.50	head1obs_g
OGLL_2_45	2965.6	0.50	head1obs_g
OGLL_2_46	2962.9	0.50	head1obs_g
OGLL_2_47	2963.8	0.50	head1obs_g
OGLL_2_48	2961.7	0.50	head1obs_g
OGLL_2_49	2963	0.50	head1obs_g
OGLL_2_50	2960.3	0.50	head1obs_g
OGLL_2_51	2961.8	0.50	head1obs_g
OGLL_2_52	2960.6	0.50	head1obs_g
OGLL_2_53	2961.9	0.50	head1obs_g
OGLL_2_54	2959.9	0.50	head1obs_g
OGLL_2_55	2960.9	0.50	head1obs_g
OGLL_2_56	2959	0.50	head1obs_g
OGLL_2_57	2960.4	0.50	head1obs_g
OGLL_2_58	2959.2	0.50	head1obs_g
OGLL_2_59	2960.9	0.50	head1obs_g
OGLL_3_1	2962.1	0.50	head1obs_g
OGLL_3_2	2960	0.50	head1obs_g
OGLL_3_3	2959	0.50	head1obs_g
OGLL_3_4	2959.9	0.50	head1obs_g
OGLL_3_5	2958.9	0.50	head1obs_g
OGLL_3_6	2959.4	0.50	head1obs_g
OGLL_3_7	2958.2	0.50	head1obs_g
OGLL_3_8	2959	0.50	head1obs_g
OGLL_3_9	2958.7	0.50	head1obs_g
OGLL_3_10	2959.1	0.50	head1obs_g
OGLL_3_11	2958.2	0.50	head1obs_g
OGLL_3_12	2958	0.50	head1obs_g
OGLL_3_13	2958.6	0.50	head1obs_g
OGLL_3_14	2958.7	0.50	head1obs_g
OGLL_3_15	2959.1	0.50	head1obs_g
OGLL_3_16	2959.5	0.50	head1obs_g
OGLL_3_17	2958.8	0.50	head1obs_g
OGLL_3_18	2959.3	0.50	head1obs_g
OGLL_3_19	2958.5	0.50	head1obs_g
OGLL_3_20	2959.5	0.50	head1obs_g
OGLL_3_21	2958.2	0.50	head1obs_g
OGLL_3_22	2959.2	0.50	head1obs_g
OGLL_3_23	2958.5	0.50	head1obs_g
OGLL_3_24	2959.1	0.50	head1obs_g
OGLL_3_25	2958.2	0.50	head1obs_g
OGLL_3_26	2958.9	0.50	head1obs_g
OGLL_3_27	2958.7	0.50	head1obs_g
OGLL_3_28	2959.2	0.50	head1obs_g
OGLL_3_29	2958.8	0.50	head1obs_g
OGLL_3_30	2959.4	0.50	head1obs_g
OGLL_3_31	2959.1	0.50	head1obs_g
OGLL_3_32	2959.7	0.50	head1obs_g
OGLL_3_33	2959.3	0.50	head1obs_g
OGLL_3_34	2959.9	0.50	head1obs_g
OGLL_3_35	2959.1	0.50	head1obs_g
OGLL_3_36	2960.2	0.50	head1obs_g
OGLL_3_37	2959.4	0.50	head1obs_g
OGLL_3_38	2961.1	0.50	head1obs_g
OGLL_3_39	2960.5	0.50	head1obs_g
OGLL_3_40	2961.6	0.50	head1obs_g
OGLL_3_41	2961.2	0.50	head1obs_g
OGLL_3_42	2962.1	0.50	head1obs_g
OGLL_3_43	2961.6	0.50	head1obs_g
OGLL_3_44	2962.4	0.50	head1obs_g
OGLL_3_45	2961.5	0.50	head1obs_g
OGLL_3_46	2962.3	0.50	head1obs_g
OGLL_3_47	2961.2	0.50	head1obs_g
OGLL_3_48	2962.4	0.50	head1obs_g
OGLL_4_1	2954.5	0.50	head1obs_g
OGLL_4_2	2957.1	0.50	head1obs_g
OGLL_4_3	2952.5	0.50	head1obs_g
OGLL_4_4	2955.1	0.50	head1obs_g
OGLL_4_5	2953.1	0.50	head1obs_g
OGLL_4_6	2955.7	0.50	head1obs_g
OGLL_4_7	2953.8	0.50	head1obs_g
OGLL_4_8	2957.1	0.50	head1obs_g
OGLL_4_9	2956.1	0.50	head1obs_g
OGLL_4_10	2958.2	0.50	head1obs_g
OGLL_4_11	2955.2	0.50	head1obs_g
OGLL_4_12	2957.2	0.50	head1obs_g
OGLL_4_13	2953.8	0.50	head1obs_g
OGLL_4_14	2956.2	0.50	head1obs_g
OGLL_4_15	2957.4	0.50	head1obs_g
OGLL_4_16	2959.1	0.50	head1obs_g
OGLL_4_17	2956.2	0.50	head1obs_g
OGLL_4_18	2958.2	0.50	head1obs_g
OGLL_4_19	2955.6	0.50	head1obs_g
OGLL_4_20	2957.7	0.50	head1obs_g
OGLL_4_21	2952.7	0.50	head1obs_g
OGLL_4_22	2955.4	0.50	head1obs_g
OGLL_4_23	2951.5	0.50	head1obs_g
OGLL_4_24	2955.5	0.50	head1obs_g
OGLL_4_25	2953.2	0.50	head1obs_g
OGLL_4_26	2957.4	0.50	head1obs_g
OGLL_4_27	2953.3	0.50	head1obs_g
OGLL_4_28	2957.1	0.50	head1obs_g
OGLL_4_29	2955.5	0.50	head1obs_g
OGLL_4_30	2959.1	0.50	head1obs_g
OGLL_4_31	2950.4	0.50	head1obs_g
OGLL_4_32	2958.3	0.50	head1obs_g
OGLL_4_33	2955.1	0.50	head1obs_g
OGLL_4_34	2959.5	0.50	head1obs_g
OGLL_4_35	2955	0.50	head1obs_g
OGLL_4_36	2959.3	0.50	head1obs_g
OGLL_4_37	2959.8	0.50	head1obs_g
OGLL_4_38	2961.2	0.50	head1obs_g
OGLL_4_39	2953.1	0.50	head1obs_g
OGLL_4_40	2961.4	0.50	head1obs_g
OGLL_4_41	2958.4	0.50	head1obs_g
OGLL_4_42	2960.8	0.50	head1obs_g
OGLL_4_43	2957.7	0.50	head1obs_g
OGLL_4_44	2959.9	0.50	head1obs_g
OGLL_4_45	2955.1	0.50	head1obs_g
OGLL_4_46	2959.3	0.50	head1obs_g
OGLL_4_47	2952.8	0.50	head1obs_g
OGLL_4_48	2951.2	0.50	head1obs_g
OGLL_4_49	2951.8	0.50	head1obs_g
OGLL_4_50	2955.7	0.50	head1obs_g
OGLL_4_51	2948.5	0.50	head1obs_g
OGLL_4_52	2954.5	0.50	head1obs_g
OGLL_4_53	2952.3	0.50	head1obs_g
OGLL_4_54	2954	0.50	head1obs_g
OGLL_4_55	2950	0.50	head1obs_g
OGLL_4_56	2953.2	0.50	head1obs_g
OGLL_4_57	2947	0.50	head1obs_g
OGLL_4_58	2953.2	0.50	head1obs_g
OGLL_4_59	2950.5	0.50	head1obs_g
OGLL_4_60	2954.3	0.50	head1obs_g
OGLL_5_1	2931.2	0.50	head1obs_g
OGLL_5_2	2932.2	0.50	head1obs_g
OGLL_5_3	2930.7	0.50	head1obs_g
OGLL_5_4	2931.4	0.50	head1obs_g
OGLL_5_5	2930.6	0.50	head1obs_g
OGLL_5_6	2931.1	0.50	head1obs_g
OGLL_5_7	2930.3	0.50	head1obs_g
OGLL_5_8	2931.5	0.50	head1obs_g
OGLL_5_9	2930.6	0.50	head1obs_g
OGLL_5_10	2931.9	0.50	head1obs_g
OGLL_5_11	2930.5	0.50	head1obs_g
OGLL_5_12	2931.2	0.50	head1obs_g
OGLL_5_13	2929.9	0.50	head1obs_g
OGLL_5_14	2930.6	0.50	head1obs_g
OGLL_5_15	2930.4	0.50	head1obs_g
OGLL_5_16	2931.3	0.50	head1obs_g
OGLL_5_17	2930.4	0.50	head1obs_g
OGLL_5_18	2931.2	0.50	head1obs_g
OGLL_5_19	2930.2	0.50	head1obs_g
OGLL_5_20	2931.4	0.50	head1obs_g
OGLL_5_21	2929.5	0.50	head1obs_g
OGLL_5_22	2930.2	0.50	head1obs_g
OGLL_5_23	2929.1	0.50	head1obs_g
OGLL_5_24	2930.1	0.50	head1obs_g
OGLL_5_25	2929.5	0.50	head1obs_g
OGLL_5_26	2930.4	0.50	head1obs_g
OGLL_5_27	2929.7	0.50	head1obs_g
OGLL_5_28	2930.4	0.50	head1obs_g
OGLL_5_29	2931.2	0.50	head1obs_g
OGLL_5_30	2932.6	0.50	head1obs_g
OGLL_5_31	2931.8	0.50	head1obs_g
OGLL_5_32	2932.1	0.50	head1obs_g
OGLL_5_33	2931.9	0.50	head1obs_g
OGLL_5_34	2933.1	0.50	head1obs_g
OGLL_5_35	2932	0.50	head1obs_g
OGLL_5_36	2933.3	0.50	head1obs_g
OGLL_5_37	2933.3	0.50	head1obs_g
OGLL_5_38	2934.2	0.50	head1obs_g
OGLL_5_39	2933.2	0.50	head1obs_g
OGLL_5_40	2933.8	0.50	head1obs_g
OGLL_5_41	2933.2	0.50	head1obs_g
OGLL_5_42	2933.9	0.50	head1obs_g
OGLL_5_43	2933.1	0.50	head1obs_g
OGLL_5_44	2933.5	0.50	head1obs_g
OGLL_5_45	2932.6	0.50	head1obs_g
OGLL_5_46	2933.5	0.50	head1obs_g
OGLL_5_47	2932	0.50	head1obs_g
OGLL_5_48	2932.7	0.50	head1obs_g
OGLL_5_49	2931.1	0.50	head1obs_g
OGLL_5_50	2931.7	0.50	head1obs_g
OGLL_5_51	2930.4	0.50	head1obs_g
OGLL_5_52	2930.9	0.50	head1obs_g
OGLL_5_53	2930.1	0.50	head1obs_g
OGLL_5_54	2930.9	0.50	head1obs_g
OGLL_5_55	2929.1	0.50	head1obs_g
OGLL_5_56	2929.6	0.50	head1obs_g
OGLL_5_57	2928.5	0.50	head1obs_g
OGLL_5_58	2929.6	0.50	head1obs_g
OGLL_5_59	2928.8	0.50	head1obs_g
OGLL_5_60	2930	0.50	head1obs_g
OGLL_6_1	2974.5	0.50	head1obs_g
OGLL_6_2	2975	0.50	head1obs_g
OGLL_6_3	2974.3	0.50	head1obs_g
OGLL_6_4	2974.1	0.50	head1obs_g
OGLL_6_5	2973.6	0.50	head1obs_g
OGLL_6_6	2974.8	0.50	head1obs_g
OGLL_6_7	2974.5	0.50	head1obs_g
OGLL_6_8	2975.1	0.50	head1obs_g
OGLL_6_9	2975.2	0.50	head1obs_g
OGLL_6_10	2975.7	0.50	head1obs_g
OGLL_6_11	2974.5	0.50	head1obs_g
OGLL_6_12	2975.2	0.50	head1obs_g
OGLL_6_13	2974	0.50	head1obs_g
OGLL_6_14	2976.1	0.50	head1obs_g
OGLL_6_15	2974.9	0.50	head1obs_g
OGLL_6_16	2976	0.50	head1obs_g
OGLL_6_17	2974.6	0.50	head1obs_g
OGLL_6_18	2975.8	0.50	head1obs_g
OGLL_6_19	2974.7	0.50	head1obs_g
OGLL_6_20	2975.1	0.50	head1obs_g
OGLL_6_21	2974.1	0.50	head1obs_g
OGLL_6_22	2974.6	0.50	head1obs_g
OGLL_6_23	2974.3	0.50	head1obs_g
OGLL_6_24	2974.9	0.50	head1obs_g
OGLL_6_25	2975.5	0.50	head1obs_g
OGLL_6_26	2975.3	0.50	head1obs_g
OGLL_6_27	2974.7	0.50	head1obs_g
OGLL_6_28	2976.1	0.50	head1obs_g
OGLL_6_29	2975.1	0.50	head1obs_g
OGLL_6_30	2976.3	0.50	head1obs_g
OGLL_6_31	2975.2	0.50	head1obs_g
OGLL_6_32	2975.6	0.50	head1obs_g
OGLL_6_33	2975	0.50	head1obs_g
OGLL_6_34	2975.6	0.50	head1obs_g
OGLL_6_35	2975.1	0.50	head1obs_g
OGLL_6_36	2976.8	0.50	head1obs_g
OGLL_6_37	2976.2	0.50	head1obs_g
OGLL_6_38	2976.2	0.50	head1obs_g
OGLL_6_39	2975.9	0.50	head1obs_g
OGLL_6_40	2976	0.50	head1obs_g
OGLL_6_41	2975.2	0.50	head1obs_g
OGLL_6_42	2975.8	0.50	head1obs_g
OGLL_6_43	2974.8	0.50	head1obs_g
OGLL_6_44	2976	0.50	head1obs_g
OGLL_6_45	2974.9	0.50	head1obs_g
OGLL_6_46	2975.4	0.50	head1obs_g
OGLL_6_47	2974.6	0.50	head1obs_g
OGLL_6_48	2975.1	0.50	head1obs_g
OGLL_6_49	2974.2	0.50	head1obs_g
OGLL_6_50	2975.1	0.50	head1obs_g
OGLL_6_51	2974.3	0.50	head1obs_g
OGLL_6_52	2975.4	0.50	head1obs_g
OGLL_6_53	2974.7	0.50	head1obs_g
OGLL_6_54	2975.3	0.50	head1obs_g
OGLL_6_55	2974.4	0.50	head1obs_g
OGLL_6_56	2975.2	0.50	head1obs_g
OGLL_6_57	2974.2	0.50	head1obs_g
OGLL_6_58	2975.4	0.50	head1obs_g
OGLL_6_59	2975.1	0.50	head1obs_g
OGLL_6_60	2976.1	0.50	head1obs_g
OGLL_7_1	2906.4	0.50	head1obs_g
OGLL_7_2	2906.8	0.50	head1obs_g
OGLL_7_3	2907.4	0.50	head1obs_g
OGLL_7_4	2907.5	0.50	head1obs_g
OGLL_7_5	2907.4	0.50	head1obs_g
OGLL_7_6	2907.3	0.50	head1obs_g
OGLL_7_7	2907.1	0.50	head1obs_g
OGLL_7_8	2907.7	0.50	head1obs_g
OGLL_7_9	2908.1	0.50	head1obs_g
OGLL_7_10	2908.1	0.50	head1obs_g
OGLL_7_11	2908.1	0.50	head1obs_g
OGLL_7_12	2908.2	0.50	head1obs_g
OGLL_7_13	2908.1	0.50	head1obs_g
OGLL_7_14	2907.9	0.50	head1obs_g
OGLL_7_15	2907.4	0.50	head1obs_g
OGLL_7_16	2907.1	0.50	head1obs_g
OGLL_7_17	2906.9	0.50	head1obs_g
OGLL_7_18	2908	0.50	head1obs_g
OGLL_7_19	2908.3	0.50	head1obs_g
OGLL_7_20	2908.1	0.50	head1obs_g
OGLL_7_21	2908	0.50	head1obs_g
OGLL_7_22	2908.2	0.50	head1obs_g
OGLL_7_23	2908.5	0.50	head1obs_g
OGLL_7_24	2908.5	0.50	head1obs_g
OGLL_7_25	2909.1	0.50	head1obs_g
OGLL_7_26	2909.7	0.50	head1obs_g
OGLL_7_27	2909.9	0.50	head1obs_g
OGLL_7_28	2910.2	0.50	head1obs_g
OGLL_7_29	2910.9	0.50	head1obs_g
OGLL_7_30	2911.2	0.50	head1obs_g
OGLL_7_31	2911.3	0.50	head1obs_g
OGLL_7_32	2911.2	0.50	head1obs_g
OGLL_7_33	2911.3	0.50	head1obs_g
OGLL_7_34	2911.1	0.50	head1obs_g
OGLL_7_35	2911.1	0.50	head1obs_g
OGLL_7_36	2910.8	0.50	head1obs_g
OGLL_7_37	2911.1	0.50	head1obs_g
OGLL_7_38	2910.7	0.50	head1obs_g
OGLL_7_39	2910.2	0.50	head1obs_g
OGLL_7_40	2909.5	0.50	head1obs_g
OGLL_7_41	2909.3	0.50	head1obs_g
OGLL_7_42	2908.9	0.50	head1obs_g
OGLL_7_43	2908.4	0.50	head1obs_g
OGLL_7_44	2907.7	0.50	head1obs_g
OGLL_7_45	2909.5	0.50	head1obs_g
OGLL_7_46	2909.1	0.50	head1obs_g
OGLL_7_47	2908.8	0.50	head1obs_g
OGLL_7_48	2908.6	0.50	head1obs_g
OGLL_7_49	2907.7	0.50	head1obs_g
OGLL_7_50	2907.1	0.50	head1obs_g
OGLL_7_51	2907.2	0.50	head1obs_g
OGLL_7_52	2907.1	0.50	head1obs_g
OGLL_9_1	2902.7	0.50	head1obs_g
OGLL_9_2	2902.4	0.50	head1obs_g
OGLL_9_3	2902.1	0.50	head1obs_g
OGLL_9_4	2902.2	0.50	head1obs_g
OGLL_9_5	2902.3	0.50	head1obs_g
OGLL_9_6	2902.1	0.50	head1obs_g
OGLL_9_7	2902.5	0.50	head1obs_g
OGLL_9_8	2902.3	0.50	head1obs_g
OGLL_9_9	2902.7	0.50	head1obs_g
OGLL_9_10	2902.5	0.50	head1obs_g
OGLL_9_11	2902.3	0.50	head1obs_g
OGLL_9_12	2902.6	0.50	head1obs_g
OGLL_9_13	2903	0.50	head1obs_g
OGLL_9_14	2902.8	0.50	head1obs_g
OGLL_9_15	2902.8	0.50	head1obs_g
OGLL_9_16	2902.9	0.50	head1obs_g
OGLL_9_17	2903.4	0.50	head1obs_g
OGLL_9_18	2903.2	0.50	head1obs_g
OGLL_9_19	2903.3	0.50	head1obs_g
OGLL_9_20	2903.6	0.50	head1obs_g
OGLL_9_21	2903.2	0.50	head1obs_g
OGLL_9_22	2903	0.50	head1obs_g
OGLL_9_23	2903.1	0.50	head1obs_g
OGLL_9_24	2902.9	0.50	head1obs_g
OGLL_9_25	2903	0.50	head1obs_g
OGLL_9_26	2902.6	0.50	head1obs_g
OGLL_9_27	2902.8	0.50	head1obs_g
OGLL_9_28	2902.6	0.50	head1obs_g
OGLL_9_29	2902.6	0.50	head1obs_g
OGLL_9_30	2902.9	0.50	head1obs_g
OGLL_9_31	2903.1	0.50	head1obs_g
OGLL_9_32	2903.1	0.50	head1obs_g
OGLL_9_33	2903.4	0.50	head1obs_g
OGLL_9_34	2903.4	0.50	head1obs_g
OGLL_9_35	2903.7	0.50	head1obs_g
OGLL_9_36	2904.1	0.50	head1obs_g
OGLL_9_37	2902.3	0.50	head1obs_g
OGLL_9_38	2902.3	0.50	head1obs_g
OGLL_9_39	2902.9	0.50	head1obs_g
OGLL_9_40	2903	0.50	head1obs_g
OGLL_9_41	2903.2	0.50	head1obs_g
OGLL_9_42	2902.9	0.50	head1obs_g
OGLL_9_43	2903.2	0.50	head1obs_g
OGLL_9_44	2902.7	0.50	head1obs_g
OGLL_9_45	2903.1	0.50	head1obs_g
OGLL_9_46	2902.5	0.50	head1obs_g
OGLL_9_47	2902.8	0.50	head1obs_g
OGLL_9_48	2902.3	0.50	head1obs_g
OGLL_9_49	2901.6	0.50	head1obs_g
OGLL_9_50	2902.1	0.50	head1obs_g
OGLL_9_51	2902	0.50	head1obs_g
OGLL_9_52	2901.9	0.50	head1obs_g
OGLL_9_53	2901.8	0.50	head1obs_g
OGLL_9_54	2901.5	0.50	head1obs_g
OGLL_9_55	2900.9	0.50	head1obs_g
OGLL_9_56	2901.3	0.50	head1obs_g
OGLL_9_57	2900.8	0.50	head1obs_g
OGLL_10_1	3057.5	0.50	head1obs_g
OGLL_10_2	3057.5	0.50	head1obs_g
OGLL_10_3	3057	0.50	head1obs_g
OGLL_10_4	3056.8	0.50	head1obs_g
OGLL_10_5	3056.4	0.50	head1obs_g
OGLL_10_6	3056.7	0.50	head1obs_g
OGLL_10_7	3056.7	0.50	head1obs_g
OGLL_10_8	3056.8	0.50	head1obs_g
OGLL_10_9	3057.6	0.50	head1obs_g
OGLL_10_10	3058.1	0.50	head1obs_g
OGLL_10_11	3057.8	0.50	head1obs_g
OGLL_10_12	3057.9	0.50	head1obs_g
OGLL_10_13	3057.4	0.50	head1obs_g
OGLL_10_14	3058.2	0.50	head1obs_g
OGLL_10_15	3058.5	0.50	head1obs_g
OGLL_10_16	3059	0.50	head1obs_g
OGLL_10_17	3058.6	0.50	head1obs_g
OGLL_10_18	3059.2	0.50	head1obs_g
OGLL_10_19	3058.5	0.50	head1obs_g
OGLL_10_20	3058.8	0.50	head1obs_g
OGLL_10_21	3058.1	0.50	head1obs_g
OGLL_10_22	3058.1	0.50	head1obs_g
OGLL_10_23	3057.8	0.50	head1obs_g
OGLL_10_24	3057.8	0.50	head1obs_g
OGLL_10_25	3059.4	0.50	head1obs_g
OGLL_10_26	3059.4	0.50	head1obs_g
OGLL_10_27	3058.9	0.50	head1obs_g
OGLL_10_28	3058.9	0.50	head1obs_g
OGLL_10_29	3058.9	0.50	head1obs_g
OGLL_10_30	3059.3	0.50	head1obs_g
OGLL_10_31	3058.5	0.50	head1obs_g
OGLL_10_32	3058.6	0.50	head1obs_g
OGLL_10_33	3059.1	0.50	head1obs_g
OGLL_10_34	3059.5	0.50	head1obs_g
OGLL_10_35	3059.3	0.50	head1obs_g
OGLL_10_36	3059.7	0.50	head1obs_g
OGLL_10_37	3060.2	0.50	head1obs_g
OGLL_10_38	3060.5	0.50	head1obs_g
OGLL_10_39	3060.3	0.50	head1obs_g
OGLL_10_40	3060.8	0.50	head1obs_g
OGLL_10_41	3060	0.50	head1obs_g
OGLL_10_42	3060.4	0.50	head1obs_g
OGLL_10_43	3059.8	0.50	head1obs_g
OGLL_10_44	3060.1	0.50	head1obs_g
OGLL_10_45	3059.9	0.50	head1obs_g
OGLL_10_46	3060.1	0.50	head1obs_g
OGLL_10_47	3059.4	0.50	head1obs_g
OGLL_10_48	3059.6	0.50	head1obs_g
OGLL_10_49	3058.9	0.50	head1obs_g
OGLL_10_50	3058.4	0.50	head1obs_g
OGLL_10_51	3058.4	0.50	head1obs_g
OGLL_10_52	3058.5	0.50	head1obs_g
OGLL_10_53	3058.5	0.50	head1obs_g
OGLL_10_54	3057.8	0.50	head1obs_g
OGLL_10_55	3057.8	0.50	head1obs_g
OGLL_10_56	3057.4	0.50	head1obs_g
OGLL_10_57	3057.9	0.50	head1obs_g
OGLL_10_58	3058.5	0.50	head1obs_g
OGLL_10_59	3058.4	0.50	head1obs_g
OGLL_11_1	3044.1	0.50	head1obs_g
OGLL_11_2	3043	0.50	head1obs_g
OGLL_11_3	3043.8	0.50	head1obs_g
OGLL_11_4	3044.7	0.50	head1obs_g
OGLL_11_5	3044.6	0.50	head1obs_g
OGLL_11_6	3045.7	0.50	head1obs_g
OGLL_11_7	3044.7	0.50	head1obs_g
OGLL_11_8	3044.6	0.50	head1obs_g
OGLL_11_9	3044.4	0.50	head1obs_g
OGLL_11_10	3045.7	0.50	head1obs_g
OGLL_11_11	3045.5	0.50	head1obs_g
OGLL_11_12	3046.5	0.50	head1obs_g
OGLL_11_13	3045	0.50	head1obs_g
OGLL_11_14	3045.9	0.50	head1obs_g
OGLL_11_15	3045	0.50	head1obs_g
OGLL_11_16	3045.7	0.50	head1obs_g
OGLL_11_17	3044.8	0.50	head1obs_g
OGLL_11_18	3045.1	0.50	head1obs_g
OGLL_11_19	3044.3	0.50	head1obs_g
OGLL_11_20	3044.9	0.50	head1obs_g
OGLL_11_21	3044.9	0.50	head1obs_g
OGLL_11_22	3045.6	0.50	head1obs_g
OGLL_11_23	3044.6	0.50	head1obs_g
OGLL_11_24	3045.4	0.50	head1obs_g
OGLL_11_25	3044.9	0.50	head1obs_g
OGLL_11_26	3045.8	0.50	head1obs_g
OGLL_11_27	3044.8	0.50	head1obs_g
OGLL_11_28	3046	0.50	head1obs_g
OGLL_11_29	3045.5	0.50	head1obs_g
OGLL_11_30	3046.6	0.50	head1obs_g
OGLL_11_31	3046	0.50	head1obs_g
OGLL_11_32	3047.1	0.50	head1obs_g
OGLL_11_33	3046.5	0.50	head1obs_g
OGLL_11_34	3047.2	0.50	head1obs_g
OGLL_11_35	3047	0.50	head1obs_g
OGLL_11_36	3048.1	0.50	head1obs_g
OGLL_11_37	3047.3	0.50	head1obs_g
OGLL_11_38	3048	0.50	head1obs_g
OGLL_11_39	3047.3	0.50	head1obs_g
OGLL_11_40	3048.3	0.50	head1obs_g
OGLL_11_41	3047	0.50	head1obs_g
OGLL_11_42	3047.8	0.50	head1obs_g
OGLL_11_43	3046.3	0.50	head1obs_g
OGLL_11_44	3046.6	0.50	head1obs_g
OGLL_11_45	3045.7	0.50	head1obs_g
OGLL_11_46	3046.3	0.50	head1obs_g
OGLL_11_47	3045.1	0.50	head1obs_g
OGLL_11_48	3045.7	0.50	head1obs_g
OGLL_11_49	3045.1	0.50	head1obs_g