pcf
* control data
restart estimation
     698     226       8      0      8
6  2  single  point  1  0  0
2.000000e+001  -3.000000e+000  3.000000e-001  1.000000e-002  -7 999 lamforgive
1.000000e+001  1.000000e+001  1.000000e-003
1.000000e-001 1 noaui noboundscale
0 1.000000e-002  3  3  1.000000e-002  3
0  0  0   PARSAVEITN reisaveitn nojcosaveitn
* singular value decomposition
  1
  19  5.000000e-007
  1
* parameter groups
Kxp     relative   1.000000e-002  0.000000e+000  switch  2.000000e+000  parabolic 1.0e-5 0.5 smaller
Kzp     relative   1.000000e-002  0.000000e+000  switch  2.000000e+000  parabolic 1.0e-5 0.5 smaller
Kx     relative   1.000000e-002  0.000000e+000  switch  2.000000e+000  parabolic 1.0e-5 0.5 smaller
Kz     relative   1.000000e-002  0.000000e+000  switch  2.000000e+000  parabolic 1.0e-5 0.5 smaller
Rch relative   1.000000e-002  0.000000e+000  switch  2.000000e+000  parabolic 1.0e-5 0.5 smaller
KM relative   1.000000e-002  0.000000e+000  switch  2.000000e+000  parabolic 1.0e-5 0.5 smaller
Stor relative   1.000000e-002  0.000000e+000  switch  2.000000e+000  parabolic 1.0e-5 0.5 smaller
SFRc relative   1.000000e-002  0.000000e+000  switch  2.000000e+000  parabolic 1.0e-5 0.5 smaller
* parameter data
sfrc log factor    6.022887      2.0 12.0 sfrc 1 0 1
rm1     log     factor   0.9384015      0.1     5.0000e+00     rch     1     0     1
rm3     log     factor   0.2657568      0.1    5.0000e+00     rch     1     0     1
rm4     log     factor    1.011369      0.1    5.00000e+00     rch     1     0     1
rm5     log     factor    3.870223      0.1     5.00000e+00     rch     1     0     1
rm6     log     factor   0.5367566      0.1     5.00000e+00     rch     1     0     1
rm7     log     factor    1.376893      0.1     5.00000e+00   rch     1     0     1
rm8     log     factor    2.484413      0.1     5.00000e+00     rch     1     0     1
rm9     log     factor    2.686032      0.1     5.00000e+00     rch     1     0     1
rm10     log     factor    2.606147      0.1     5.00000e+00     rch     1     0     1
rm11     log     factor    1.700077      0.1     5.00000e+00    rch     1     0     1
rm12     log     factor    1.088827      0.1     5.00000e+00      stor     1     0     1
ss     log     factor   1.0000000E-03  1.000000e-03     3.000000e-03     stor     1     0     1
sy     log     factor   0.1920053      1.200000e-01     2.400000e-01     stor     1     0     1
hkm1     fixed     factor    1.000000      2.500000e-01     2.500000e+00     km     1     0     1
hkm2     fixed     factor    1.000000      2.500000e-01     2.500000e+00     km     1     0     1
hkm3     fixed     factor    1.000000      2.500000e-01     2.500000e+00     km     1     0     1
vkm1     fixed     factor    1.000000      2.500000e-01     2.500000e+00     km     1     0     1
vkm2     fixed     factor    1.000000      2.500000e-01     2.500000e+00     km     1     0     1
vkm3     fixed     factor    1.000000      2.500000e-01     2.500000e+00     km     1     0     1
kx1 fixed factor    19.92335      1.0 50.0 kx 1 0 1
kx2 fixed factor    25.16218      1.0 50.0 kx 1 0 1
kx21 fixed factor    26.01905      1.0 50.0 kx 1 0 1
kx3 fixed factor    23.14970      1.0 50.0 kx 1 0 1
kx4 fixed factor    1.083679      0.1 10.0 kx 1 0 1
kx5 fixed factor    23.53727      1.0 50.0 kx 1 0 1
kx6 fixed factor    18.26886      1.0 50.0 kx 1 0 1
kx8 fixed factor    1.111668      0.1 10.0 kx 1 0 1
kx81 fixed factor   0.9646282      0.1 10.0 kx 1 0 1
kx13 fixed factor    150.5676      40.0 250.0 kx 1 0 1
kx14 fixed factor    49.57449      20.0 80.0 kx 1 0 1
kx15 fixed factor    48.08753      20.0 80.0 kx 1 0 1
kz1 fixed factor    2.027530      0.10 5.0 kz 1 0 1
kz2 fixed factor    2.508460      0.10 5.0  kz 1 0 1
kz21 fixed factor    2.481175      0.10 5.0  kz 1 0 1
kz3 fixed factor    2.717434      0.10 5.0  kz 1 0 1
kz4 fixed factor   0.1029887      0.01 1.0 kz 1 0 1
kz5 fixed factor    17.56769      1.0 50.0 kz 1 0 1
kz6 fixed factor    14.87731      1.0 50.0 kz 1 0 1
kz8 fixed factor   0.9302963      0.1 10.0 kz 1 0 1
kz81 fixed factor    1.014333      0.1 10.0 kz 1 0 1
kz13 fixed factor    9.678040      3.0 130.0 kz 1 0 1
kz14 fixed factor    3.450347      2.0 8.0 kz 1 0 1
kz15 fixed factor    3.855647      2.0 8.0 kz 1 0 1
kpkp1  fixed  factor    215.8662      1.20e+02  5.00e+02  kxp  1  0  1
kpkp2  fixed  factor    230.6796      1.20e+02  5.00e+02  kxp  1  0  1
kpkp3  fixed  factor    231.3630      1.20e+02  5.00e+02  kxp  1  0  1
kpkp4  fixed  factor    257.1256      1.20e+02  5.00e+02  kxp  1  0  1
kpkp5  fixed  factor    226.3253      1.20e+02  5.00e+02  kxp  1  0  1
kpkp6  fixed  factor    226.8347      1.20e+02  5.00e+02  kxp  1  0  1
kpkp7  fixed  factor    219.4311      1.20e+02  5.00e+02  kxp  1  0  1
kpkp8  fixed  factor    215.4198      1.20e+02  5.00e+02  kxp  1  0  1
kpkp9  fixed  factor    239.8684      1.20e+02  5.00e+02  kxp  1  0  1
kpkp10  fixed  factor    224.3251      1.20e+02  5.00e+02  kxp  1  0  1
kpkp11  fixed  factor    215.0930      1.20e+02  5.00e+02  kxp  1  0  1
kpkp12  fixed  factor    219.4602      1.20e+02  5.00e+02  kxp  1  0  1
kpkp13  fixed  factor    233.6963      1.20e+02  5.00e+02  kxp  1  0  1
kpkp14  fixed  factor    227.0042      1.20e+02  5.00e+02  kxp  1  0  1
kpkp15  fixed  factor    258.7776      1.20e+02  5.00e+02  kxp  1  0  1
kpkp16  fixed  factor    237.4439      1.20e+02  5.00e+02  kxp  1  0  1
kpkp17  fixed  factor    234.2021      1.20e+02  5.00e+02  kxp  1  0  1
kpkp18  fixed  factor    231.0682      1.20e+02  5.00e+02  kxp  1  0  1
kpkp19  fixed  factor    212.7843      1.20e+02  5.00e+02  kxp  1  0  1
kpkp20  fixed  factor    220.2186      1.20e+02  5.00e+02  kxp  1  0  1
kpkp21  fixed  factor    224.1317      1.20e+02  5.00e+02  kxp  1  0  1
kpkp22  fixed  factor    253.6213      1.20e+02  5.00e+02  kxp  1  0  1
kpkp23  fixed  factor    236.2611      1.20e+02  5.00e+02  kxp  1  0  1
kpkp24  fixed  factor    212.6009      1.20e+02  5.00e+02  kxp  1  0  1
kpkp25  fixed  factor    231.1900      1.20e+02  5.00e+02  kxp  1  0  1
kpkp26  fixed  factor    220.5609      1.20e+02  5.00e+02  kxp  1  0  1
kpkp27  fixed  factor    249.3942      1.20e+02  5.00e+02  kxp  1  0  1
kpkp28  fixed  factor    233.5493      1.20e+02  5.00e+02  kxp  1  0  1
kpkp29  fixed  factor    209.4813      1.20e+02  5.00e+02  kxp  1  0  1
kpkp30  fixed  factor    217.7027      1.20e+02  5.00e+02  kxp  1  0  1
kpkp31  fixed  factor    235.6244      1.20e+02  5.00e+02  kxp  1  0  1
kpkp32  fixed  factor    215.8181      1.20e+02  5.00e+02  kxp  1  0  1
kpkp33  fixed  factor    221.7036      1.20e+02  5.00e+02  kxp  1  0  1
kpkp34  fixed  factor    228.2130      1.20e+02  5.00e+02  kxp  1  0  1
kpkp35  fixed  factor    211.9147      1.20e+02  5.00e+02  kxp  1  0  1
kpkp36  fixed  factor    229.5016      1.20e+02  5.00e+02  kxp  1  0  1
kpkp37  fixed  factor    211.7652      1.20e+02  5.00e+02  kxp  1  0  1
kpkp38  fixed  factor    227.4584      1.20e+02  5.00e+02  kxp  1  0  1
kpkp39  fixed  factor    239.0547      1.20e+02  5.00e+02  kxp  1  0  1
kpkp40  fixed  factor    223.2906      1.20e+02  5.00e+02  kxp  1  0  1
kpkp41  fixed  factor    232.5578      1.20e+02  5.00e+02  kxp  1  0  1
kpkp42  fixed  factor    234.9825      1.20e+02  5.00e+02  kxp  1  0  1
kpkp43  fixed  factor    222.8995      1.20e+02  5.00e+02  kxp  1  0  1
kpkp44  fixed  factor    217.8184      1.20e+02  5.00e+02  kxp  1  0  1
kpkp45  fixed  factor    214.2902      1.20e+02  5.00e+02  kxp  1  0  1
kpkp46  fixed  factor    222.0463      1.20e+02  5.00e+02  kxp  1  0  1
kpkp47  fixed  factor    224.6295      1.20e+02  5.00e+02  kxp  1  0  1
kpkp48  fixed  factor    197.4623      1.20e+02  5.00e+02  kxp  1  0  1
kpkp49  fixed  factor    218.4258      1.20e+02  5.00e+02  kxp  1  0  1
kpkp50  fixed  factor    237.1060      1.20e+02  5.00e+02  kxp  1  0  1
kpkp51  fixed  factor    216.2454      1.20e+02  5.00e+02  kxp  1  0  1
kpkp52  fixed  factor    219.4641      1.20e+02  5.00e+02  kxp  1  0  1
kpkp53  fixed  factor    203.3465      1.20e+02  5.00e+02  kxp  1  0  1
kpkp54  fixed  factor    225.0006      1.20e+02  5.00e+02  kxp  1  0  1
kpkp55  fixed  factor    251.8308      1.20e+02  5.00e+02  kxp  1  0  1
kpkp56  fixed  factor    274.5925      1.20e+02  5.00e+02  kxp  1  0  1
kpkp57  fixed  factor    233.8881      1.20e+02  5.00e+02  kxp  1  0  1
kpkp58  fixed  factor    216.8378      1.20e+02  5.00e+02  kxp  1  0  1
kpkp59  fixed  factor    236.5794      1.20e+02  5.00e+02  kxp  1  0  1
kpkp60  fixed  factor    225.8350      1.20e+02  5.00e+02  kxp  1  0  1
kpkp61  fixed  factor    248.4505      1.20e+02  5.00e+02  kxp  1  0  1
kpkp62  fixed  factor    232.6302      1.20e+02  5.00e+02  kxp  1  0  1
kpkp63  fixed  factor    213.5169      1.20e+02  5.00e+02  kxp  1  0  1
kpkp64  fixed  factor    230.9949      1.20e+02  5.00e+02  kxp  1  0  1
kpkp65  fixed  factor    220.8034      1.20e+02  5.00e+02  kxp  1  0  1
kpkp66  fixed  factor    237.8171      1.20e+02  5.00e+02  kxp  1  0  1
kpkp67  fixed  factor    312.2618      1.20e+02  5.00e+02  kxp  1  0  1
kpkp68  fixed  factor    256.2354      1.20e+02  5.00e+02  kxp  1  0  1
kpkp69  fixed  factor    186.9258      1.20e+02  5.00e+02  kxp  1  0  1
kpkp70  fixed  factor    208.0597      1.20e+02  5.00e+02  kxp  1  0  1
kpkp71  fixed  factor    219.1364      1.20e+02  5.00e+02  kxp  1  0  1
kpkp72  fixed  factor    232.3578      1.20e+02  5.00e+02  kxp  1  0  1
kpkp73  fixed  factor    234.9950      1.20e+02  5.00e+02  kxp  1  0  1
kpkp74  fixed  factor    211.4099      1.20e+02  5.00e+02  kxp  1  0  1
kpkp75  fixed  factor    212.3141      1.20e+02  5.00e+02  kxp  1  0  1
kpkp76  fixed  factor    213.0350      1.20e+02  5.00e+02  kxp  1  0  1
kpkp77  fixed  factor    224.1721      1.20e+02  5.00e+02  kxp  1  0  1
kpkp78  fixed  factor    280.7430      1.20e+02  5.00e+02  kxp  1  0  1
kpkp79  fixed  factor    313.8396      1.20e+02  5.00e+02  kxp  1  0  1
kpkp80  fixed  factor    222.0352      1.20e+02  5.00e+02  kxp  1  0  1
kpkp81  fixed  factor    215.3525      1.20e+02  5.00e+02  kxp  1  0  1
kpkp82  fixed  factor    251.4846      1.20e+02  5.00e+02  kxp  1  0  1
kpkp83  fixed  factor    221.4687      1.20e+02  5.00e+02  kxp  1  0  1
kpkp84  fixed  factor    224.4300      1.20e+02  5.00e+02  kxp  1  0  1
kpkp85  fixed  factor    228.1442      1.20e+02  5.00e+02  kxp  1  0  1
kpkp86  fixed  factor    227.7228      1.20e+02  5.00e+02  kxp  1  0  1
kpkp87  fixed  factor    215.7529      1.20e+02  5.00e+02  kxp  1  0  1
kpkp88  fixed  factor    228.7802      1.20e+02  5.00e+02  kxp  1  0  1
kpkp89  fixed  factor    226.2143      1.20e+02  5.00e+02  kxp  1  0  1
kpkp90  fixed  factor    228.9972      1.20e+02  5.00e+02  kxp  1  0  1
kpkp91  fixed  factor    247.8406      1.20e+02  5.00e+02  kxp  1  0  1
kpkp92  fixed  factor    268.0525      1.20e+02  5.00e+02  kxp  1  0  1
kpkp93  fixed  factor    243.8579      1.20e+02  5.00e+02  kxp  1  0  1
kpkp94  fixed  factor    226.4877      1.20e+02  5.00e+02  kxp  1  0  1
kpkp95  fixed  factor    193.9033      1.20e+02  5.00e+02  kxp  1  0  1
kpkp96  fixed  factor    217.2792      1.20e+02  5.00e+02  kxp  1  0  1
kpkp97  fixed  factor    226.0490      1.20e+02  5.00e+02  kxp  1  0  1
kpkp98  fixed  factor    229.9742      1.20e+02  5.00e+02  kxp  1  0  1
kpkp99  fixed  factor    209.5465      1.20e+02  5.00e+02  kxp  1  0  1
kpkp100  fixed  factor    230.2770      1.20e+02  5.00e+02  kxp  1  0  1
kpkp101  fixed  factor    204.6834      1.20e+02  5.00e+02  kxp  1  0  1
kpkp102  fixed  factor    211.8528      1.20e+02  5.00e+02  kxp  1  0  1
kpkp103  fixed  factor    206.8437      1.20e+02  5.00e+02  kxp  1  0  1
kpkp104  fixed  factor    235.3673      1.20e+02  5.00e+02  kxp  1  0  1
kpkp105  fixed  factor    229.7809      1.20e+02  5.00e+02  kxp  1  0  1
kpkp106  fixed  factor    284.5019      1.20e+02  5.00e+02  kxp  1  0  1
kpkp107  fixed  factor    223.4867      1.20e+02  5.00e+02  kxp  1  0  1
kpkp108  fixed  factor    223.5642      1.20e+02  5.00e+02  kxp  1  0  1
kpkp109  fixed  factor    220.8600      1.20e+02  5.00e+02  kxp  1  0  1
kpkp110  fixed  factor    224.1955      1.20e+02  5.00e+02  kxp  1  0  1
kpkp111  fixed  factor    227.1310      1.20e+02  5.00e+02  kxp  1  0  1
kpkp112  fixed  factor    226.3609      1.20e+02  5.00e+02  kxp  1  0  1
kpkp113  fixed  factor    228.7344      1.20e+02  5.00e+02  kxp  1  0  1
kpkp114  fixed  factor    224.4241      1.20e+02  5.00e+02  kxp  1  0  1
kpkp115  fixed  factor    210.0250      1.20e+02  5.00e+02  kxp  1  0  1
kpkp116  fixed  factor    214.2740      1.20e+02  5.00e+02  kxp  1  0  1
kpkp117  fixed  factor    218.3867      1.20e+02  5.00e+02  kxp  1  0  1
kpkp118  fixed  factor    225.5214      1.20e+02  5.00e+02  kxp  1  0  1
kpkp119  fixed  factor    206.6169      1.20e+02  5.00e+02  kxp  1  0  1
kpkp120  fixed  factor    228.0243      1.20e+02  5.00e+02  kxp  1  0  1
kpkp121  fixed  factor    213.2179      1.20e+02  5.00e+02  kxp  1  0  1
kpkp122  fixed  factor    238.9509      1.20e+02  5.00e+02  kxp  1  0  1
kpkp123  fixed  factor    219.4636      1.20e+02  5.00e+02  kxp  1  0  1
kpkp124  fixed  factor    217.8319      1.20e+02  5.00e+02  kxp  1  0  1
kpkp125  fixed  factor    223.0456      1.20e+02  5.00e+02  kxp  1  0  1
kpkp126  fixed  factor    208.0629      1.20e+02  5.00e+02  kxp  1  0  1
kpkp127  fixed  factor    227.0565      1.20e+02  5.00e+02  kxp  1  0  1
kpkp128  fixed  factor    235.1970      1.20e+02  5.00e+02  kxp  1  0  1
kpkp129  fixed  factor    201.5061      1.20e+02  5.00e+02  kxp  1  0  1
kpkp130  fixed  factor    215.2749      1.20e+02  5.00e+02  kxp  1  0  1
kpkp131  fixed  factor    222.4364      1.20e+02  5.00e+02  kxp  1  0  1
kpkp132  fixed  factor    224.6276      1.20e+02  5.00e+02  kxp  1  0  1
kpkp133  fixed  factor    215.9159      1.20e+02  5.00e+02  kxp  1  0  1
kpkp134  fixed  factor    218.8260      1.20e+02  5.00e+02  kxp  1  0  1
kpkp135  fixed  factor    207.1782      1.20e+02  5.00e+02  kxp  1  0  1
kpkp136  fixed  factor    235.5706      1.20e+02  5.00e+02  kxp  1  0  1
kpkp137  fixed  factor    199.2512      1.20e+02  5.00e+02  kxp  1  0  1
kpkp138  fixed  factor    198.7830      1.20e+02  5.00e+02  kxp  1  0  1
kpkp139  fixed  factor    236.9349      1.20e+02  5.00e+02  kxp  1  0  1
kpkp140  fixed  factor    234.7945      1.20e+02  5.00e+02  kxp  1  0  1
kpkp141  fixed  factor    250.1649      1.20e+02  5.00e+02  kxp  1  0  1
kpkp142  fixed  factor    235.5056      1.20e+02  5.00e+02  kxp  1  0  1
kpkp143  fixed  factor    224.8551      1.20e+02  5.00e+02  kxp  1  0  1
kpkp144  fixed  factor    218.1698      1.20e+02  5.00e+02  kxp  1  0  1
kpkp145  fixed  factor    216.3060      1.20e+02  5.00e+02  kxp  1  0  1
kpkp146  fixed  factor    229.3005      1.20e+02  5.00e+02  kxp  1  0  1
kpkp147  fixed  factor    238.3175      1.20e+02  5.00e+02  kxp  1  0  1
kpkp148  fixed  factor    234.3616      1.20e+02  5.00e+02  kxp  1  0  1
kpkp149  fixed  factor    208.8095      1.20e+02  5.00e+02  kxp  1  0  1
kpkp150  fixed  factor    227.7084      1.20e+02  5.00e+02  kxp  1  0  1
kpkp151  fixed  factor    197.4442      1.20e+02  5.00e+02  kxp  1  0  1
kpkp152  fixed  factor    192.1078      1.20e+02  5.00e+02  kxp  1  0  1
kpkp153  fixed  factor    196.9512      1.20e+02  5.00e+02  kxp  1  0  1
kpkp154  fixed  factor    190.1740      1.20e+02  5.00e+02  kxp  1  0  1
kpkp155  fixed  factor    216.8899      1.20e+02  5.00e+02  kxp  1  0  1
kpkp156  fixed  factor    216.7691      1.20e+02  5.00e+02  kxp  1  0  1
kpkp157  fixed  factor    246.5071      1.20e+02  5.00e+02  kxp  1  0  1
kpkp158  fixed  factor    210.2357      1.20e+02  5.00e+02  kxp  1  0  1
kpkp159  fixed  factor    211.2026      1.20e+02  5.00e+02  kxp  1  0  1
kpkp160  fixed  factor    228.1029      1.20e+02  5.00e+02  kxp  1  0  1
kpkp161  fixed  factor    254.4505      1.20e+02  5.00e+02  kxp  1  0  1
kpkp162  fixed  factor    232.6729      1.20e+02  5.00e+02  kxp  1  0  1
kpkp163  fixed  factor    256.4530      1.20e+02  5.00e+02  kxp  1  0  1
kpkp164  fixed  factor    221.7300      1.20e+02  5.00e+02  kxp  1  0  1
kpkp165  fixed  factor    231.8541      1.20e+02  5.00e+02  kxp  1  0  1
kpkp166  fixed  factor    199.5025      1.20e+02  5.00e+02  kxp  1  0  1
kpkp167  fixed  factor    206.3292      1.20e+02  5.00e+02  kxp  1  0  1
kpkp168  fixed  factor    222.0719      1.20e+02  5.00e+02  kxp  1  0  1
kpkp169  fixed  factor    202.6759      1.20e+02  5.00e+02  kxp  1  0  1
kpkp170  fixed  factor    224.6184      1.20e+02  5.00e+02  kxp  1  0  1
kpkp171  fixed  factor    148.0959      1.20e+02  5.00e+02  kxp  1  0  1
kpkp172  fixed  factor    199.0802      1.20e+02  5.00e+02  kxp  1  0  1
kpkp173  fixed  factor    213.1397      1.20e+02  5.00e+02  kxp  1  0  1
kpkp174  fixed  factor    246.4461      1.20e+02  5.00e+02  kxp  1  0  1
kpkp175  fixed  factor    204.7454      1.20e+02  5.00e+02  kxp  1  0  1
kpkp176  fixed  factor    437.1073      1.20e+02  5.00e+02  kxp  1  0  1
kpkp177  fixed  factor    218.5149      1.20e+02  5.00e+02  kxp  1  0  1
kpkp178  fixed  factor    216.3900      1.20e+02  5.00e+02  kxp  1  0  1
kpkp179  fixed  factor    222.7161      1.20e+02  5.00e+02  kxp  1  0  1
kpkp180  fixed  factor    215.0828      1.20e+02  5.00e+02  kxp  1  0  1
kpkp181  fixed  factor    201.9527      1.20e+02  5.00e+02  kxp  1  0  1
kpkp182  fixed  factor    500.0000      1.20e+02  5.00e+02  kxp  1  0  1
kpkp183  fixed  factor    220.7027      1.20e+02  5.00e+02  kxp  1  0  1
kpkp184  fixed  factor    265.5121      1.20e+02  5.00e+02  kxp  1  0  1
kpkp185  fixed  factor    186.3538      1.20e+02  5.00e+02  kxp  1  0  1
kpkp186  fixed  factor    185.5436      1.20e+02  5.00e+02  kxp  1  0  1
kpkp187  fixed  factor    195.4807      1.20e+02  5.00e+02  kxp  1  0  1
kpkp188  fixed  factor    206.2250      1.20e+02  5.00e+02  kxp  1  0  1
kpkp189  fixed  factor    216.3754      1.20e+02  5.00e+02  kxp  1  0  1
kpkp190  fixed  factor    174.7013      1.20e+02  5.00e+02  kxp  1  0  1
kpkp191  fixed  factor    225.1078      1.20e+02  5.00e+02  kxp  1  0  1
kpkp192  fixed  factor    220.6981      1.20e+02  5.00e+02  kxp  1  0  1
kpkp193  fixed  factor    220.3413      1.20e+02  5.00e+02  kxp  1  0  1
kpkp194  fixed  factor    234.6193      1.20e+02  5.00e+02  kxp  1  0  1
kpkp195  fixed  factor    327.4592      1.20e+02  5.00e+02  kxp  1  0  1
kpkp196  fixed  factor    211.2043      1.20e+02  5.00e+02  kxp  1  0  1
kpkp197  fixed  factor    216.8689      1.20e+02  5.00e+02  kxp  1  0  1
kpkp198  fixed  factor    440.3171      1.20e+02  5.00e+02  kxp  1  0  1
kpkp199  fixed  factor    223.3494      1.20e+02  5.00e+02  kxp  1  0  1
kpkp200  fixed  factor    194.2047      1.20e+02  5.00e+02  kxp  1  0  1
kpkp201  fixed  factor    191.0647      1.20e+02  5.00e+02  kxp  1  0  1
kpkp202  fixed  factor    215.1794      1.20e+02  5.00e+02  kxp  1  0  1
kpkp203  fixed  factor    203.5631      1.20e+02  5.00e+02  kxp  1  0  1
kpkp204  fixed  factor    223.6799      1.20e+02  5.00e+02  kxp  1  0  1
kpkp205  fixed  factor    222.0793      1.20e+02  5.00e+02  kxp  1  0  1
kpkp206  fixed  factor    272.1797      1.20e+02  5.00e+02  kxp  1  0  1
kpkp207  fixed  factor    232.0741      1.20e+02  5.00e+02  kxp  1  0  1
kpkp208  fixed  factor    217.4692      1.20e+02  5.00e+02  kxp  1  0  1
kpkp209  fixed  factor    234.0517      1.20e+02  5.00e+02  kxp  1  0  1
kpkp210  fixed  factor    231.5794      1.20e+02  5.00e+02  kxp  1  0  1
kpkp211  fixed  factor    209.8300      1.20e+02  5.00e+02  kxp  1  0  1
kpkp212  fixed  factor    241.6953      1.20e+02  5.00e+02  kxp  1  0  1
kpkp213  fixed  factor    208.5752      1.20e+02  5.00e+02  kxp  1  0  1
kpkp214  fixed  factor    293.3894      1.20e+02  5.00e+02  kxp  1  0  1
kpkp215  fixed  factor    218.5847      1.20e+02  5.00e+02  kxp  1  0  1
kpkp216  fixed  factor    214.2981      1.20e+02  5.00e+02  kxp  1  0  1
kpkp217  fixed  factor    214.6298      1.20e+02  5.00e+02  kxp  1  0  1
kpkp218  fixed  factor    233.5400      1.20e+02  5.00e+02  kxp  1  0  1
kpkp219  fixed  factor    199.6775      1.20e+02  5.00e+02  kxp  1  0  1
kpkp220  fixed  factor    219.5416      1.20e+02  5.00e+02  kxp  1  0  1
kpkp221  fixed  factor    250.2619      1.20e+02  5.00e+02  kxp  1  0  1
kpkp222  fixed  factor    228.1427      1.20e+02  5.00e+02  kxp  1  0  1
kpkp223  fixed  factor    254.2304      1.20e+02  5.00e+02  kxp  1  0  1
kpkp224  fixed  factor    236.1478      1.20e+02  5.00e+02  kxp  1  0  1
kpkp225  fixed  factor    234.6417      1.20e+02  5.00e+02  kxp  1  0  1
kpkp226  fixed  factor    225.7168      1.20e+02  5.00e+02  kxp  1  0  1
kpkp227  fixed  factor    248.0622      1.20e+02  5.00e+02  kxp  1  0  1
kpkp228  fixed  factor    220.1842      1.20e+02  5.00e+02  kxp  1  0  1
kpkp229  fixed  factor    221.3532      1.20e+02  5.00e+02  kxp  1  0  1
kpkp230  fixed  factor    282.0646      1.20e+02  5.00e+02  kxp  1  0  1
kpkp231  fixed  factor    233.5100      1.20e+02  5.00e+02  kxp  1  0  1
kpkp232  fixed  factor    222.3688      1.20e+02  5.00e+02  kxp  1  0  1
kpkp233  fixed  factor    220.8938      1.20e+02  5.00e+02  kxp  1  0  1
kpkp234  fixed  factor    235.0092      1.20e+02  5.00e+02  kxp  1  0  1
kpkp235  fixed  factor    219.0866      1.20e+02  5.00e+02  kxp  1  0  1
kpkp236  fixed  factor    266.0192      1.20e+02  5.00e+02  kxp  1  0  1
kpkp237  fixed  factor    230.8560      1.20e+02  5.00e+02  kxp  1  0  1
kpkp238  fixed  factor    244.9992      1.20e+02  5.00e+02  kxp  1  0  1
kpkp239  fixed  factor    256.5073      1.20e+02  5.00e+02  kxp  1  0  1
kpkp240  fixed  factor    229.6530      1.20e+02  5.00e+02  kxp  1  0  1
kpkp241  fixed  factor    222.1135      1.20e+02  5.00e+02  kxp  1  0  1
kpkp242  fixed  factor    276.8109      1.20e+02  5.00e+02  kxp  1  0  1
kpkp243  fixed  factor    228.2457      1.20e+02  5.00e+02  kxp  1  0  1
kpkp244  fixed  factor    225.5554      1.20e+02  5.00e+02  kxp  1  0  1
kpkp245  fixed  factor    262.0543      1.20e+02  5.00e+02  kxp  1  0  1
kpkp246  fixed  factor    204.3983      1.20e+02  5.00e+02  kxp  1  0  1
kpkp247  fixed  factor    233.7610      1.20e+02  5.00e+02  kxp  1  0  1
kpkp248  fixed  factor    237.0232      1.20e+02  5.00e+02  kxp  1  0  1
kpkp249  fixed  factor    222.2463      1.20e+02  5.00e+02  kxp  1  0  1
kpkp250  fixed  factor    231.6303      1.20e+02  5.00e+02  kxp  1  0  1
kpkp251  fixed  factor    255.6696      1.20e+02  5.00e+02  kxp  1  0  1
kpkp252  fixed  factor    246.1143      1.20e+02  5.00e+02  kxp  1  0  1
kpkp253  fixed  factor    232.1081      1.20e+02  5.00e+02  kxp  1  0  1
kpkp254  fixed  factor    219.2059      1.20e+02  5.00e+02  kxp  1  0  1
kpkp255  fixed  factor    221.4533      1.20e+02  5.00e+02  kxp  1  0  1
kpkp256  fixed  factor    217.0584      1.20e+02  5.00e+02  kxp  1  0  1
kpkp257  fixed  factor    215.8554      1.20e+02  5.00e+02  kxp  1  0  1
kpkp258  fixed  factor    241.4998      1.20e+02  5.00e+02  kxp  1  0  1
kpkp259  fixed  factor    234.5169      1.20e+02  5.00e+02  kxp  1  0  1
kpkp260  fixed  factor    222.7401      1.20e+02  5.00e+02  kxp  1  0  1
kpkp261  fixed  factor    229.3243      1.20e+02  5.00e+02  kxp  1  0  1
kpkp262  fixed  factor    224.3285      1.20e+02  5.00e+02  kxp  1  0  1
kpkp263  fixed  factor    223.0368      1.20e+02  5.00e+02  kxp  1  0  1
kpkp264  fixed  factor    233.6689      1.20e+02  5.00e+02  kxp  1  0  1
kpkp265  fixed  factor    218.5179      1.20e+02  5.00e+02  kxp  1  0  1
kpkp266  fixed  factor    228.7124      1.20e+02  5.00e+02  kxp  1  0  1
kpkp267  fixed  factor    231.7525      1.20e+02  5.00e+02  kxp  1  0  1
kpkp268  fixed  factor    224.6580      1.20e+02  5.00e+02  kxp  1  0  1
kpkp269  fixed  factor    234.6050      1.20e+02  5.00e+02  kxp  1  0  1
kpkp270  fixed  factor    226.3977      1.20e+02  5.00e+02  kxp  1  0  1
kpkp271  fixed  factor    208.8253      1.20e+02  5.00e+02  kxp  1  0  1
kpkp272  fixed  factor    218.1020      1.20e+02  5.00e+02  kxp  1  0  1
kpkp273  fixed  factor    229.9400      1.20e+02  5.00e+02  kxp  1  0  1
kpkp274  fixed  factor    222.1853      1.20e+02  5.00e+02  kxp  1  0  1
kpkp275  fixed  factor    231.2581      1.20e+02  5.00e+02  kxp  1  0  1
kpkp276  fixed  factor    226.3338      1.20e+02  5.00e+02  kxp  1  0  1
kpkp277  fixed  factor    223.1164      1.20e+02  5.00e+02  kxp  1  0  1
kpkp278  fixed  factor    212.5448      1.20e+02  5.00e+02  kxp  1  0  1
kpkp279  fixed  factor    217.2775      1.20e+02  5.00e+02  kxp  1  0  1
kpkp280  fixed  factor    213.1894      1.20e+02  5.00e+02  kxp  1  0  1
kpkp281  fixed  factor    220.3440      1.20e+02  5.00e+02  kxp  1  0  1
kpkp282  fixed  factor    198.8678      1.20e+02  5.00e+02  kxp  1  0  1
kpkp283  fixed  factor    204.7503      1.20e+02  5.00e+02  kxp  1  0  1
kpkp284  fixed  factor    209.0969      1.20e+02  5.00e+02  kxp  1  0  1
kpkp285  fixed  factor    189.5051      1.20e+02  5.00e+02  kxp  1  0  1
kpkp286  fixed  factor    217.6185      1.20e+02  5.00e+02  kxp  1  0  1
kpkp287  fixed  factor    219.0829      1.20e+02  5.00e+02  kxp  1  0  1
kpkp288  fixed  factor    225.0459      1.20e+02  5.00e+02  kxp  1  0  1
kpkp289  fixed  factor    216.3528      1.20e+02  5.00e+02  kxp  1  0  1
kpkp290  fixed  factor    238.8731      1.20e+02  5.00e+02  kxp  1  0  1
kpkp291  fixed  factor    227.0543      1.20e+02  5.00e+02  kxp  1  0  1
kpkp292  fixed  factor    219.6330      1.20e+02  5.00e+02  kxp  1  0  1
kpkp293  fixed  factor    224.9481      1.20e+02  5.00e+02  kxp  1  0  1
kpkp294  fixed  factor    233.2413      1.20e+02  5.00e+02  kxp  1  0  1
kpkp295  fixed  factor    230.6396      1.20e+02  5.00e+02  kxp  1  0  1
kpkp296  fixed  factor    229.8443      1.20e+02  5.00e+02  kxp  1  0  1
kpkp297  fixed  factor    219.4899      1.20e+02  5.00e+02  kxp  1  0  1
kpkp298  fixed  factor    224.7686      1.20e+02  5.00e+02  kxp  1  0  1
kpkp299  fixed  factor    188.6917      1.20e+02  5.00e+02  kxp  1  0  1
kpkp300  fixed  factor    196.6811      1.20e+02  5.00e+02  kxp  1  0  1
kpkp301  fixed  factor    222.0065      1.20e+02  5.00e+02  kxp  1  0  1
kpkp302  fixed  factor    204.1666      1.20e+02  5.00e+02  kxp  1  0  1
kpkp303  fixed  factor    231.3897      1.20e+02  5.00e+02  kxp  1  0  1
kpkp304  fixed  factor    221.7220      1.20e+02  5.00e+02  kxp  1  0  1
kpkp305  fixed  factor    207.4340      1.20e+02  5.00e+02  kxp  1  0  1
kpkp306  fixed  factor    230.2662      1.20e+02  5.00e+02  kxp  1  0  1
kpkp307  fixed  factor    229.0031      1.20e+02  5.00e+02  kxp  1  0  1
kpkp308  fixed  factor    247.6037      1.20e+02  5.00e+02  kxp  1  0  1
kpkp309  fixed  factor    215.5572      1.20e+02  5.00e+02  kxp  1  0  1
kpkp310  fixed  factor    198.4068      1.20e+02  5.00e+02  kxp  1  0  1
kpkp311  fixed  factor    268.9922      1.20e+02  5.00e+02  kxp  1  0  1
kpkp312  fixed  factor    252.6102      1.20e+02  5.00e+02  kxp  1  0  1
kpkp313  fixed  factor    223.6547      1.20e+02  5.00e+02  kxp  1  0  1
kpkp314  fixed  factor    220.5287      1.20e+02  5.00e+02  kxp  1  0  1
kpkp315  fixed  factor    240.7101      1.20e+02  5.00e+02  kxp  1  0  1
kpkp316  fixed  factor    243.7647      1.20e+02  5.00e+02  kxp  1  0  1
kpkp317  fixed  factor    202.0547      1.20e+02  5.00e+02  kxp  1  0  1
kpkp318  fixed  factor    243.1380      1.20e+02  5.00e+02  kxp  1  0  1
kpkp319  fixed  factor    213.5415      1.20e+02  5.00e+02  kxp  1  0  1
kpkp320  fixed  factor    202.3566      1.20e+02  5.00e+02  kxp  1  0  1
kpkp321  fixed  factor    235.4256      1.20e+02  5.00e+02  kxp  1  0  1
kpkp322  fixed  factor    239.9469      1.20e+02  5.00e+02  kxp  1  0  1
kpkp323  fixed  factor    258.4563      1.20e+02  5.00e+02  kxp  1  0  1
kpkp324  fixed  factor    242.8663      1.20e+02  5.00e+02  kxp  1  0  1
kpkp325  fixed  factor    234.4715      1.20e+02  5.00e+02  kxp  1  0  1
kpkp326  fixed  factor    217.3716      1.20e+02  5.00e+02  kxp  1  0  1
kpkp327  fixed  factor    229.3956      1.20e+02  5.00e+02  kxp  1  0  1
kzkz1  fixed  factor    11.57678      6.00e+00  5.00e+01  kzp  1  0  1
kzkz2  fixed  factor    12.78630      6.00e+00  5.00e+01  kzp  1  0  1
kzkz3  fixed  factor    11.13450      6.00e+00  5.00e+01  kzp  1  0  1
kzkz4  fixed  factor    11.34386      6.00e+00  5.00e+01  kzp  1  0  1
kzkz5  fixed  factor    10.99236      6.00e+00  5.00e+01  kzp  1  0  1
kzkz6  fixed  factor    11.40854      6.00e+00  5.00e+01  kzp  1  0  1
kzkz7  fixed  factor    11.25569      6.00e+00  5.00e+01  kzp  1  0  1
kzkz8  fixed  factor    11.03773      6.00e+00  5.00e+01  kzp  1  0  1
kzkz9  fixed  factor    11.15963      6.00e+00  5.00e+01  kzp  1  0  1
kzkz10  fixed  factor    11.40162      6.00e+00  5.00e+01  kzp  1  0  1
kzkz11  fixed  factor    11.03662      6.00e+00  5.00e+01  kzp  1  0  1
kzkz12  fixed  factor    12.00024      6.00e+00  5.00e+01  kzp  1  0  1
kzkz13  fixed  factor    11.12482      6.00e+00  5.00e+01  kzp  1  0  1
kzkz14  fixed  factor    11.11645      6.00e+00  5.00e+01  kzp  1  0  1
kzkz15  fixed  factor    11.78626      6.00e+00  5.00e+01  kzp  1  0  1
kzkz16  fixed  factor    11.02717      6.00e+00  5.00e+01  kzp  1  0  1
kzkz17  fixed  factor    10.72519      6.00e+00  5.00e+01  kzp  1  0  1
kzkz18  fixed  factor    10.94157      6.00e+00  5.00e+01  kzp  1  0  1
kzkz19  fixed  factor    10.90180      6.00e+00  5.00e+01  kzp  1  0  1
kzkz20  fixed  factor    11.24097      6.00e+00  5.00e+01  kzp  1  0  1
kzkz21  fixed  factor    11.69999      6.00e+00  5.00e+01  kzp  1  0  1