pcf
* control data
restart estimation
5 19 2 0 2
2 3 single point 1 0 1
5 2 0.3 0.03 10
2 3 0.001 0
0.5
30 0.01 3 3 0.01 3
1 1 1
* parameter groups
ro relative 0.001 0.0001 switch 2 parabolic
hhh relative 0.001 0.0001 switch 2 parabolic
* parameter data
ro1 log factor 4.000000 0.1 10000 ro 1 0 1
ro2 log factor 5.000000 0.1 10000 ro 1 0 1
ro3 log factor 6.000000 0.1 10000 ro 1 0 1
h1 log factor  5.000000 0.05 100 hhh 1 0 1
h2 log factor  4.000000 0.05 100 hhh 1 0 1
* observation groups
obsgp1
obsgp2
* observation data
ar1 1.21038 1 obsgp1
ar2 1.51208 1 obsgp1
ar3 2.07204 1 obsgp1
ar4 2.94056 1 obsgp1
ar5 4.15787 1 obsgp1
ar6 5.7762 1 obsgp1
ar7 7.7894 1 obsgp1
ar8 9.99743 1 obsgp1
ar9 11.8307 1 obsgp2
ar10 12.3194 1 obsgp2
ar11 10.6003 1 obsgp2
ar12 7.00419 1 obsgp2
ar13 3.44391 1 obsgp2
ar14 1.58279 1 obsgp2
ar15 1.1038 1 obsgp2
ar16 1.03086 1 obsgp2
ar17 1.01318 1 obsgp2
ar18 1.00593 1 obsgp2
ar19 1.00272 1 obsgp2
* model command line
../ves
* model input/output
ves1.tpl a_model.in1
ves2.tpl a_model.in2
ves1.ins a_model.ot1
ves2.ins a_model.ot2
ves3.ins a_model.ot3
* prior information
