pcf
* control data
restart estimation
   38   165      6     0     22
    2     2 single point   1   0   0
  5.0  -3.0   0.3  0.03    10
  8.0   8.0 0.001  0
  0.1
    0  0.01     3     3  0.01     3
    1     1     1
* singular value decomposition
         1
        10     5E-08
         0
* parameter groups
FLOW    relative 0.08  0.0  switch    2.0 best_fit
THERM   relative 0.08  0.0  switch    2.0 best_fit
REAC    relative 0.08  0.0  switch    2.0 best_fit
BNDRY   relative 0.08  0.0  switch    2.0 best_fit
vanG    relative 0.08  0.0  switch    2.0 best_fit
TRNSPRT relative 0.08  0.0  switch    2.0 best_fit
* parameter data
ANIZ            log    factor           1.00000     1.0000000E-06  5.0000000E+00   FLOW     1.0000      0.0000   1
HK_SAT          log    factor           1.16e-6     2.7800000E-08  2.7800000E-02   FLOW     1.0000      0.0000   1
Ss              log    factor           1.00e-6     1.0000000E-07  1.0000000E-05   FLOW     1.0000      0.0000   1
PRSITY          log    factor           0.20000     0.04000000000  0.50000000000   FLOW     1.0000      0.0000   1
vG_Alfa         log    factor           3.00505     0.70700000000  12.0000000000   vanG     1.0000      0.0000   1
Theta_R         log    factor           0.10000     0.02000000000  0.12000000000   vanG     1.0000      0.0000   1
vG_Beta         log    factor           2.50000     1.00000000000  5.25000000000   vanG     1.0000      0.0000   1
HT_Disp_l       log    factor           0.10000     0.01000000000  1.00000000000   THERM    1.0000      0.0000   1
HT_Disp_t       log    factor           0.10000     0.01000000000  1.00000000000   THERM    1.0000      0.0000   1
HtCap_Sld       log    factor           2.180e6     1.1000000E+06  2.5000000E+06   THERM    1.0000      0.0000   1
HT_Resid        log    factor           0.22000     0.18000000000  0.26000000000   THERM    1.0000      0.0000   1
HT_Sat          log    factor           1.80000     1.40000000000  2.20000000000   THERM    1.0000      0.0000   1
HtCap_Wat       log    factor           4.180e6     3.0000000E+06  5.0000000E+06   THERM    1.0000      0.0000   1
HK_Disp_l       log    factor           0.10000     0.01000000000  10.0000000000   TRNSPRT  1.0000      0.0000   1
HK_Disp_t       log    factor           0.10000     0.01000000000  10.0000000000   TRNSPRT  1.0000      0.0000   1
INFLUX          log    factor           5.80e-7     1.1600000E-07  1.1600000E-06   BNDRY    1.0000      0.0000   1
entry_tmp       log    factor           15.0000     10.0000000000  20.0000000000   BNDRY    1.0000      0.0000   1
bndry_tmp       log    factor           10.0000     5.00000000000  15.0000000000   BNDRY    1.0000      0.0000   1
k_tmp           log    factor           0.70000     0.50000000000  0.90000000000   REAC     1.0000      0.0000   1
k_nitri         log    factor           0.01000     0.2500000E-04  1.0000000E+00   REAC     1.0000      0.0000   1
k_denitri       log    factor           10.0E-9     0.1000000E-10  10.000000E-03   REAC     1.0000      0.0000   1
k_decomp_1      log    factor           5.0e-03     1.0000000E-05  1.0000000E+00   REAC     1.0000      0.0000   1
k_decomp_2      log    factor           1.0e-01     1.0000000E-02  1.0000000E+00   REAC     1.0000      0.0000   1
o2_hlf_dec      log    factor           1.5e-05     1.0000000E-07  1.0000000E-02   REAC     1.0000      0.0000   1
o2_hlf_nit      log    factor          1.25e-04     1.0000000E-07  1.0000000E-02   REAC     1.0000      0.0000   1
o2_hlf_den      log    factor          6.25e-05     1.0000000E-07  1.0000000E-02   REAC     1.0000      0.0000   1
C_N_rat_up      log    factor           0.05000     0.01000000000  0.50000000000   REAC     1.0000      0.0000   1
C_N_rat_lw      log    factor           0.05000     0.01000000000  0.50000000000   REAC     1.0000      0.0000   1
amm_half      fixed    factor           1.0e-05     1.0000000E-07  1.0000000E-03   REAC     1.0000      0.0000   1
m0_nitri        log    factor           1.00000     0.1000000000   10.0000000000   REAC     1.0000      0.0000   1
pH_influx       log    factor           7.00000     6.0000000000   8.00000000000   BNDRY    1.0000      0.0000   1
pH_column       log    factor           7.00000     6.0000000000   8.00000000000   REAC     1.0000      0.0000   1
pE_influx       log    factor           4.00000     2.0000000000   7.50000000000   BNDRY    1.0000      0.0000   1
pE_column       log    factor           4.00000     2.0000000000   7.50000000000   REAC     1.0000      0.0000   1
O2_influx       log    factor           1.00000     0.2500000000   3.50000000000   BNDRY    1.0000      0.0000   1
Doc_influx      log    factor           2.0e-04     1.000000E-08   1.00000000000   BNDRY    1.0000      0.0000   1
O2_column       log    factor           1.00000     0.2500000000   3.50000000000   REAC     1.0000      0.0000   1
NO3_column      log    factor           1.0e-03     1.250000e-04   1.00000000000   REAC     1.0000      0.0000   1
* observation groups
Pres_Hd
Pres_Hd_out
Velcty
Velcty_out
Temp
Temp_out
h20
h20_out
H
H_out
O2
O2_out
Chrge
Chrge_out
Ammonia
Ammonia_out
Doc
Doc_out
NO3
NO3_out
N2
N2_out
* observation data
 prshd_w_1        0.7233000        1.00     Pres_Hd
 prshd_w_2        0.7640000        1.00     Pres_Hd
 prshd_w_3        0.8045000        1.00     Pres_Hd
 prshd_w_4        0.8446000        1.00     Pres_Hd
 prshd_w_5        0.8845000        1.00     Pres_Hd
 prshd_w_6        0.9241000        1.00     Pres_Hd
 prshd_w_7        0.9634000        1.00     Pres_Hd
 prshd_w_8         1.002000        1.00     Pres_Hd
 prshd_w_9         1.041000        1.00     Pres_Hd
 prshd_w_10        1.080000        1.00     Pres_Hd
 prshd_w_11        1.118000        1.00     Pres_Hd
 prshd_w_12        1.156000        1.00     Pres_Hd
 prshd_w_13        1.194000        1.00     Pres_Hd
 prshd_w_14        1.232000        1.00     Pres_Hd
 prshd_w_15        1.269000        1.00     Pres_Hd_out
 zvel_w_1         0.000000         1.00     Velcty
 zvel_w_2        5.8000000E-07     1.00     Velcty
 zvel_w_3        5.8000000E-07     1.00     Velcty
 zvel_w_4        5.8000000E-07     1.00     Velcty
 zvel_w_5        5.8000000E-07     1.00     Velcty
 zvel_w_6        5.8000000E-07     1.00     Velcty
 zvel_w_7        5.8000000E-07     1.00     Velcty
 zvel_w_8        5.8000000E-07     1.00     Velcty
 zvel_w_9        5.8000000E-07     1.00     Velcty
 zvel_w_10       5.8000000E-07     1.00     Velcty
 zvel_w_11       5.8000000E-07     1.00     Velcty
 zvel_w_12       5.8000000E-07     1.00     Velcty
 zvel_w_13       5.8000000E-07     1.00     Velcty
 zvel_w_14       5.8000000E-07     1.00     Velcty
 zvel_w_15       5.8000000E-07     1.00     Velcty_out
 temp_w_1          13.40850        1.00     Temp
 temp_w_2          13.22650        1.00     Temp
 temp_w_3          13.04240        1.00     Temp
 temp_w_4          12.85800        1.00     Temp
 temp_w_5          12.67520        1.00     Temp
 temp_w_6          12.49600        1.00     Temp
 temp_w_7          12.32270        1.00     Temp
 temp_w_8          12.15740        1.00     Temp
 temp_w_9          12.00260        1.00     Temp
 temp_w_10         11.86090        1.00     Temp
 temp_w_11         11.73500        1.00     Temp
 temp_w_12         11.62760        1.00     Temp
 temp_w_13         11.54200        1.00     Temp
 temp_w_14         11.48130        1.00     Temp
 temp_w_15         11.44900        1.00     Temp_out
 conc_h2o_1        997000.0        1.00     h20
 conc_h2o_2        997000.0        1.00     h20
 conc_h2o_3        997000.0        1.00     h20
 conc_h2o_4        997000.0        1.00     h20
 conc_h2o_5        997000.0        1.00     h20
 conc_h2o_6        997000.0        1.00     h20
 conc_h2o_7        997000.0        1.00     h20
 conc_h2o_8        997000.0        1.00     h20
 conc_h2o_9        997000.0        1.00     h20
 conc_h2o_10       997000.0        1.00     h20
 conc_h2o_11       997000.0        1.00     h20
 conc_h2o_12       997000.0        1.00     h20
 conc_h2o_13       997000.0        1.00     h20
 conc_h2o_14       997000.0        1.00     h20
 conc_h2o_15       997000.0        1.00     h20_out
 conc_h_1         5.0700000E-03    1.00     H
 conc_h_2         6.5800000E-03    1.00     H
 conc_h_3         7.5600000E-03    1.00     H
 conc_h_4         8.1000000E-03    1.00     H
 conc_h_5         8.2500000E-03    1.00     H
 conc_h_6         8.0500000E-03    1.00     H
 conc_h_7         7.5700000E-03    1.00     H
 conc_h_8         6.8600000E-03    1.00     H
 conc_h_9         6.0200000E-03    1.00     H
 conc_h_10        5.1200000E-03    1.00     H
 conc_h_11        4.2200000E-03    1.00     H
 conc_h_12        3.3800000E-03    1.00     H
 conc_h_13        2.6300000E-03    1.00     H
 conc_h_14        2.0000000E-03    1.00     H
 conc_h_15        1.5400000E-03    1.00     H_out
 conc_o2_1         7.553299        1.00     O2
 conc_o2_2         7.119085        1.00     O2
 conc_o2_3         6.643333        1.00     O2
 conc_o2_4         6.113113        1.00     O2
 conc_o2_5         5.525454        1.00     O2
 conc_o2_6         4.890540        1.00     O2
 conc_o2_7         4.231370        1.00     O2
 conc_o2_8         3.579561        1.00     O2
 conc_o2_9         2.968602        1.00     O2
 conc_o2_10        2.426880        1.00     O2
 conc_o2_11        1.972689        1.00     O2
 conc_o2_12        1.612475        1.00     O2
 conc_o2_13        1.342355        1.00     O2
 conc_o2_14        1.152770        1.00     O2
 conc_o2_15        1.039371        1.00     O2_out
 conc_chrg_1     -3.3300000E-05    1.00     Chrge
 conc_chrg_2     -7.2300000E-05    1.00     Chrge
 conc_chrg_3     -1.3500000E-04    1.00     Chrge
 conc_chrg_4     -2.2600000E-04    1.00     Chrge
 conc_chrg_5     -3.4700000E-04    1.00     Chrge
 conc_chrg_6     -4.9400000E-04    1.00     Chrge
 conc_chrg_7     -6.5800000E-04    1.00     Chrge
 conc_chrg_8     -8.3000000E-04    1.00     Chrge
 conc_chrg_9     -9.9700000E-04    1.00     Chrge
 conc_chrg_10    -1.1500000E-03    1.00     Chrge
 conc_chrg_11    -1.2800000E-03    1.00     Chrge
 conc_chrg_12    -1.3800000E-03    1.00     Chrge
 conc_chrg_13    -1.4600000E-03    1.00     Chrge
 conc_chrg_14    -1.5100000E-03    1.00     Chrge
 conc_chrg_15    -1.5500000E-03    1.00     Chrge_out
 conc_amm_1       1.2000000E-02    1.00     Ammonia
 conc_amm_2       1.8200000E-02    1.00     Ammonia
 conc_amm_3       2.2600000E-02    1.00     Ammonia
 conc_amm_4       2.5200000E-02    1.00     Ammonia
 conc_amm_5       2.5900000E-02    1.00     Ammonia
 conc_amm_6       2.4900000E-02    1.00     Ammonia
 conc_amm_7       2.2600000E-02    1.00     Ammonia
 conc_amm_8       1.9400000E-02    1.00     Ammonia
 conc_amm_9       1.5700000E-02    1.00     Ammonia
 conc_amm_10      1.2100000E-02    1.00     Ammonia
 conc_amm_11      8.8800000E-03    1.00     Ammonia
 conc_amm_12      6.1800000E-03    1.00     Ammonia
 conc_amm_13      4.1100000E-03    1.00     Ammonia
 conc_amm_14      2.6300000E-03    1.00     Ammonia
 conc_amm_15      1.7400000E-03    1.00     Ammonia_out
 conc_doc_1      2.758727          1.00     Doc
 conc_doc_2      2.590884          1.00     Doc
 conc_doc_3      2.403922          1.00     Doc
 conc_doc_4      2.192190          1.00     Doc
 conc_doc_5      1.954326          1.00     Doc
 conc_doc_6      1.694632          1.00     Doc
 conc_doc_7      1.422936          1.00     Doc
 conc_doc_8      1.152800          1.00     Doc
 conc_doc_9     0.8986314          1.00     Doc
 conc_doc_10    0.6726890          1.00     Doc
 conc_doc_11    0.4829442          1.00     Doc
 conc_doc_12    0.3323161          1.00     Doc
 conc_doc_13    0.2193102          1.00     Doc
 conc_doc_14    0.1399862          1.00     Doc
 conc_doc_15    9.2541918E-02      1.00     Doc_out
 conc_n_1       9.8300000E-04      1.00     NO3
 conc_n_2       1.9500000E-03      1.00     NO3
 conc_n_3       3.2400000E-03      1.00     NO3
 conc_n_4       4.8300000E-03      1.00     NO3
 conc_n_5       6.6900000E-03      1.00     NO3
 conc_n_6       8.7400000E-03      1.00     NO3
 conc_n_7       1.0900000E-02      1.00     NO3
 conc_n_8       1.3100000E-02      1.00     NO3
 conc_n_9       1.5100000E-02      1.00     NO3
 conc_n_10      1.6900000E-02      1.00     NO3
 conc_n_11      1.8500000E-02      1.00     NO3
 conc_n_12      1.9700000E-02      1.00     NO3
 conc_n_13      2.0700000E-02      1.00     NO3
 conc_n_14      2.1300000E-02      1.00     NO3
 conc_n_15      2.1700000E-02      1.00     NO3_out
 conc_n2_1       0.000000          1.00     N2
 conc_n2_2       0.000000          1.00     N2
 conc_n2_3       0.000000          1.00     N2
 conc_n2_4       0.000000          1.00     N2
 conc_n2_5       0.000000          1.00     N2
 conc_n2_6       0.000000          1.00     N2
 conc_n2_7       0.000000          1.00     N2
 conc_n2_8       0.000000          1.00     N2
 conc_n2_9       0.000000          1.00     N2
 conc_n2_10      0.000000          1.00     N2
 conc_n2_11      0.000000          1.00     N2
 conc_n2_12      0.000000          1.00     N2
 conc_n2_13      0.000000          1.00     N2
 conc_n2_14      0.000000          1.00     N2
 conc_n2_15      0.000000          1.00     N2_out
* model command line
_RunModel_orig.bat
* model input/output
vs2drt.dat.tpl           vs2drt.txt
nitrogenR.phrq.tpl      nitrogenR.phrq
vs2drt.out.ins           vs2drt.out
output.xyz.tsv.ins       output.xyz.tsv
++# The following is associated with PEST++ input and 
++# is parsed using key words that can be specified in any order
++ MAX_N_SUPER(16) SUPER_EIGTHRES(1.0e-7)
++ N_ITER_BASE(1) N_ITER_SUPER(3)
++ SVD_PACK(PROPACK)
++ AUTO_NORM(4)
++ MAX_SUPER_FRZ_ITER(5) MAX_REG_ITER(max_reg_iter)
++ MAT_INV(JTQJ)
++ SUPER_RELPARMAX(sup_relpar_max)
++ MAX_RUN_FAIL(3)
++ LAMBDAS(0.1,1,10,100,1000)
++ ITERATION_SUMMARY(TRUE)
++ UNCERTAINTY(FALSE)
++ FORECASTS(ph15,zvel15,temp15,conc_h2o_15,conc_h_15,conc_o_15,conc_chrg_15,conc_amm_15,conc_c_15,conc_n_15)
++ DER_FORGIVE(TRUE)
