pcf
* control data
restart estimation
9 234 4 0 3
1  1  double  point  1  0  0
1.000000e+001  2.000000e+000  3.000000e-001  1.000000e-002  10
1.000000e+001  1.000000e+001  1.000000e-003
1.000000e-001 noaui
20  1.000000e-002  3  3  1.000000e-002  3 **** CONTROLS OPTIMIZATION: SEE PEST MANUAL ****
1  1  1
* parameter groups
Kh     relative   1.000000e-002  0.000000e+000  switch  2.000000e+000  parabolic
Khi    relative   1.000000e-002  0.000000e+000  switch  2.000000e+000  parabolic
Rch    relative   1.000000e-002  0.000000e+000  switch  2.000000e+000  parabolic
Res    relative   1.000000e-002  0.000000e+000  switch  2.000000e+000  parabolic
* parameter data
K_regional__	log   factor   41.500000	 10.0000	 70.00000	Kh     1.0      0.0 1
K_crystaline	fixed   factor   2.000000	 2.000000	 40.00000	Khi    1.0      0.0 1
K_SCcrystal_	fixed   factor  2.000000	 2.000000	 40.00000	Khi    1.0      0.0 1
Kthinratio__	fixed   factor  1.000000  0.000001        1.000000       Khi    1.0      0.0 1
R_inho_ratio	none  factor   .719807811	 0.00000001     1.00000000	Rch    1.0     0.0 1
R_regional__	none  factor   .002305936	 .001369863	 .00251142	Rch    -1.0     0.0 1
C_drainlake_	fixed  factor   10	 5	 20	Res    1.0      0.0 1
C_seepage___	fixed  factor   50	 30	 70	Res    1.0      0.0 1
C_whitefish_	fixed  factor   0.5	 0.5	 10	Res    1.0      0.0 1
* observation groups
Head
Streamflow
Lakestage
* observation data
460039091285002 1186	0.100000 Head
460110091293801 1192	0.100000 Head
460214091290701 1207	0.100000 Head
460537091303801 1238	0.100000 Head
163 1065	0.100000 Head
277 1340	0.100000 Head
279 1291	0.100000 Head
282 1366	0.100000 Head
295 1018	0.100000 Head
297 1312	0.100000 Head
300 1253	0.100000 Head
302 1025	0.100000 Head
306 1007	0.100000 Head
330 1047	0.100000 Head
332 1155	0.100000 Head
349 1006	0.100000 Head
359 1180	0.100000 Head
360 1194	0.100000 Head
361 1200	0.100000 Head
369  959	0.100000 Head
392 1345	0.100000 Head
436 1248	0.100000 Head
439 1061	0.100000 Head
442 1095	0.100000 Head
443  943	0.100000 Head
455 1090	0.100000 Head
459 1166	0.100000 Head
460 1095	0.100000 Head
465 1035	0.100000 Head
472 1058	0.100000 Head
481 1034	0.100000 Head
482 1108	0.100000 Head
483 1106	0.100000 Head
490 1295	0.100000 Head
496 1021	0.100000 Head
499 1004	0.100000 Head
512 1007	0.100000 Head
550 1017	0.100000 Head
576 1244	0.100000 Head
577 1133	0.100000 Head
579 974	0.100000 Head
585 978	0.100000 Head
586 1005	0.100000 Head
588 963	0.100000 Head
594 1014	0.100000 Head
595 1010	0.100000 Head
598 1140	0.100000 Head
600 1048	0.100000 Head
639 1133	0.100000 Head
646 1124	0.100000 Head
653 1003	0.100000 Head
671 982	0.100000 Head
672 952	0.100000 Head
678 1270	0.100000 Head
685 976	0.100000 Head
714 995	0.100000 Head
715 966	0.100000 Head
717 1010	0.100000 Head
718 1069	0.100000 Head
719 1070	0.100000 Head
720 1132	0.100000 Head
721 1131	0.100000 Head
736 1129	0.100000 Head
742 1080	0.100000 Head
743 1134	0.100000 Head
745 1306	0.100000 Head
767 1223	0.100000 Head
770 1273	0.100000 Head
782 1011	0.100000 Head
797 1429	0.100000 Head
801 1124	0.100000 Head
804 1352	0.100000 Head
816 1301	0.100000 Head
817 1252	0.100000 Head
819 1150	0.100000 Head
820 1158	0.100000 Head
821 1066	0.100000 Head
823 1010	0.100000 Head
824 978	0.100000 Head
850 1183	0.100000 Head
856 969	0.100000 Head
858 1008	0.100000 Head
859 1010	0.100000 Head
866 1252	0.100000 Head
868 974	0.100000 Head
869 1021	0.100000 Head
871 1282	0.100000 Head
883 1050	0.100000 Head
884 973	0.100000 Head
885 1121	0.100000 Head
903 988	0.100000 Head
904 1003	0.100000 Head
907 1181	0.100000 Head
912 986	0.100000 Head
935 1146	0.100000 Head
936 1203	0.100000 Head
937 1149	0.100000 Head
940 1401	0.100000 Head
941 1136	0.100000 Head
957 981	0.100000 Head
962 1334	0.100000 Head
963 1328	0.100000 Head
965 1354	0.100000 Head
975 1165	0.100000 Head
1015 987	0.100000 Head
1016 1045	0.100000 Head
1018 1136	0.100000 Head
1019 1021	0.100000 Head
1030 1050	0.100000 Head
1032 1105	0.100000 Head
1035 1071	0.100000 Head
1038 1013	0.100000 Head
1065 1108	0.100000 Head
1084 1219	0.100000 Head
1085 1282	0.100000 Head
1087 988	0.100000 Head
1095 1071	0.100000 Head
1108 1005	0.100000 Head
1150 1007	0.100000 Head
1154 1013	0.100000 Head
1158 984	0.100000 Head
1171 1118	0.100000 Head
1184 1171	0.100000 Head
1188 1252	0.100000 Head
1190 1047	0.100000 Head
1203 1007	0.100000 Head
1251 1173	0.100000 Head
1261 1086	0.100000 Head
1262 1034	0.100000 Head
1264 1066	0.100000 Head
1266 1123	0.100000 Head
1279 993	0.100000 Head
1280 972	0.100000 Head
1282 1136	0.100000 Head
1292 1037	0.100000 Head
1296 991	0.100000 Head
1297 1374	0.100000 Head
1305 1102	0.100000 Head
1309 1226	0.100000 Head
1329 942	0.100000 Head
1333 939	0.100000 Head
1346 1169	0.100000 Head
1416 1121	0.100000 Head
1419 1185	0.100000 Head
1423 1005	0.100000 Head
1424 989	0.100000 Head
1427 1077	0.100000 Head
1428 1056	0.100000 Head
1438 1160	0.100000 Head
1439 1124	0.100000 Head
1440 1120	0.100000 Head
1442 1187	0.100000 Head
1443 1128	0.100000 Head
1448 1009	0.100000 Head
1475 988	0.100000 Head
1477 982	0.100000 Head
1478 1066	0.100000 Head
1483 983	0.100000 Head
1486 1020	0.100000 Head
1490 963	0.100000 Head
1491 998	0.100000 Head
1492 974	0.100000 Head
1493 1033	0.100000 Head
1495 991	0.100000 Head
1496 1066	0.100000 Head
1497 1064	0.100000 Head
1521 1031	0.100000 Head
1525 1295	0.100000 Head
1529 1109	0.100000 Head
1531 1197	0.100000 Head
1537 1102	0.100000 Head
1538 1104	0.100000 Head
1539 1029	0.100000 Head
1540 966	0.100000 Head
1546 1109	0.100000 Head
1547 987	0.100000 Head
1548 1082	0.100000 Head
1560 1122	0.100000 Head
1564 1136	0.100000 Head
1567 1156	0.100000 Head
1579 973	0.100000 Head
1584 1063	0.100000 Head
1585 1052	0.100000 Head
1587 1112	0.100000 Head
1602 1167	0.100000 Head
1604 1125	0.100000 Head
1607 1239	0.100000 Head
1641 1118	0.100000 Head
1645 1097	0.100000 Head
1646 1306	0.100000 Head
1656 1093	0.100000 Head
1667 1028	0.100000 Head
1668 985	0.100000 Head
1669 993	0.100000 Head
1670 1021	0.100000 Head
1673 1206	0.100000 Head
Bass_Lake 1038.95	5.000000 Head
Twomilelake 1049	0.000100 Head
Halfwaylake 1046	0.100000 Head
Leader_Lk 1031.06	5.000000 Head
Bond_lk 1028	0.100000 Head
Scott_lk 1041	0.100000 Head
Spider_lk 1042.7	5.000000 Head
Webb_lk 1039.38 	5.000000 Head
Red_lk 1067	0.100000 Head
up_chain_lk 1076	0.000100 Head
Clyde_lk 1075	0.000100 Head
bluegillstage 1036.78	5.000000 Head
wagnerstage 1034.36	5.000000 Head
deborahstage 1033.08	5.000000 Head
beglingerstg 1040.3	5.000000 Head
clearlake 1038.8	5.000000 Head
pickerelstge 1031.83	5.000000 Head
site1 1031.12	5.000000 Head
site2 1032.93	5.000000 Head
site3 1038.02	5.000000 Head
ave-site4ab 1033.65	5.000000 Head
site5b 1037	5.000000 Head
ave-site6ab 1033.36	5.000000 Head
ave-site7ab 1041.25	5.000000 Head
SchillerWell 1035.69	5.000000 Head
05331603 9820034.0	0.00001 Streamflow
05331598 8581805.4	0.00001 Streamflow
05331590 1836855.5	0.000000 Streamflow
05333060 1773564.2	0.00001 Streamflow
05331900  967015.9	0.00001 Streamflow
05333080  695096.4	0.00001 Streamflow
05333100  186455.7	0.00001 Streamflow
05332700  290510.0	0.00001 Streamflow
cranberry@crystal_rd 79488	0.0000500 Streamflow
cranberry@hwy_T 941760	0.0000500 Streamflow
Bergen@cemetary_Rd 338688	0.0000500 Streamflow
bergen@hwy_T 663552	0.0000500 Streamflow
WhiteFishStage 1033.6	40.000000 Lakestage
* model command line
G-PEST.bat
* model input/output
WF10par2par.tpl WF10par2par.DAT
WF10.ins WF10.XTR
