pcf
* control data
restart pareto
2710  1441  4  16984  7
3  2  single  point  1  0  0
2.000000e+001  -3.000000e+000  3.000000e-001  1.000000e-002  -10 999 lamforgive
1.000000e+001  1.000000e+001  1.000000e-003
1.000000e-001 1 noaui
-1  1.000000e-002  3  3  1.000000e-002  3
0  0  0   PARSAVEITN
* singular value decomposition
1
1715  5.000000e-007
1
* parameter groups
Kp     relative   1.000000e-002  0.000000e+000  always_3  2.000000e+000  parabolic
Kz     relative   1.000000e-002  0.000000e+000  always_3  2.000000e+000  parabolic
Rech   relative   1.000000e-002  0.000000e+000  always_3  2.000000e+000  parabolic
Cond   relative   1.000000e-002  0.000000e+000  always_3  2.000000e+000  parabolic
* parameter data
sfrc log factor    17.64645      1.00e-10 1.00e+10 cond 1 0 1
ghbc log factor    1206005.      1.00e-10 1.00e+10 cond 1 0 1
ratio_sgab  fixed  factor    1.000000      1.00e+00  1.00e+10  rech  1  0  1
ratio_sgbc  fixed  factor    1.000000      0.7  1.00e+10  rech  1  0  1
ratio_sgcd  fixed  factor    1.000000      1.00e+00  1.00e+10  rech  1  0  1
rch_mult_sgd  log  factor    1.921824      1.00e-10  1.00e+10  rech  1  0  1
kpkp89_mc1  log  factor    1.000549      1.000000e-10  1.000000e+02  kp  1.0  0.0  1
kpkp90_mc1  log  factor    1.005099      1.000000e-10  1.000000e+02  kp  1.0  0.0  1
kpkp106_mc1  log  factor   0.9891505      1.000000e-10  1.000000e+02  kp  1.0  0.0  1
kpkp107_mc1  log  factor   0.9843272      1.000000e-10  1.000000e+02  kp  1.0  0.0  1
kpkp108_mc1  log  factor   0.9968208      1.000000e-10  1.000000e+02  kp  1.0  0.0  1
kpkp122_mc1  log  factor    1.043836      1.000000e-10  1.000000e+02  kp  1.0  0.0  1
kpkp123_mc1  log  factor   0.9399426      1.000000e-10  1.000000e+02  kp  1.0  0.0  1
kpkp124_mc1  log  factor    1.629110      1.000000e-10  1.000000e+02  kp  1.0  0.0  1
kpkp125_mc1  log  factor    1.632218      1.000000e-10  1.000000e+02  kp  1.0  0.0  1
kpkp126_mc1  log  factor    1.023543      1.000000e-10  1.000000e+02  kp  1.0  0.0  1
kpkp139_mc1  log  factor    1.988157      1.000000e-10  1.000000e+02  kp  1.0  0.0  1
kpkp140_bh1  log  factor   4.4813497E-02  1.000000e-10  1.000000e+02  kp  1.0  0.0  1
kpkp141_mc1  log  factor   0.9045938      1.000000e-10  1.000000e+02  kp  1.0  0.0  1
kpkp142_mc1  log  factor   0.1961713      1.000000e-10  1.000000e+02  kp  1.0  0.0  1
kpkp143_br1  log  factor    11.64580      1.000000e-10  1.000000e+02  kp  1.0  0.0  1
kpkp144_br1  log  factor    31.64784      1.000000e-10  1.000000e+02  kp  1.0  0.0  1
kpkp156_mc1  log  factor    1.283911      1.000000e-10  1.000000e+02  kp  1.0  0.0  1
kpkp157_mc1  log  factor    5.177983      1.000000e-10  1.000000e+02  kp  1.0  0.0  1
kpkp158_tn1  log  factor    11.24148      1.000000e-10  1.000000e+02  kp  1.0  0.0  1
kpkp159_br1  log  factor    17.58096      1.000000e-10  1.000000e+02  kp  1.0  0.0  1
kpkp160_br1  log  factor    10.37551      1.000000e-10  1.000000e+02  kp  1.0  0.0  1
kpkp161_br1  log  factor    15.69360      1.000000e-10  1.000000e+02  kp  1.0  0.0  1
kpkp173_mc1  log  factor   0.9794243      1.000000e-10  1.000000e+02  kp  1.0  0.0  1
kpkp174_mc1  log  factor    1.087363      1.000000e-10  1.000000e+02  kp  1.0  0.0  1
kpkp175_tn1  log  factor    30.71888      1.000000e-10  1.000000e+02  kp  1.0  0.0  1
kpkp176_br1  log  factor    16.54718      1.000000e-10  1.000000e+02  kp  1.0  0.0  1
kpkp177_br1  log  factor    16.85268      1.000000e-10  1.000000e+02  kp  1.0  0.0  1
kpkp191_mc1  log  factor   0.9926868      1.000000e-10  1.000000e+02  kp  1.0  0.0  1
kpkp192_tn1  log  factor    100.0000      1.000000e-10  1.000000e+02  kp  1.0  0.0  1
kpkp193_br1  log  factor    15.59470      1.000000e-10  1.000000e+02  kp  1.0  0.0  1
kpkp202_ts1  log  factor    16.38652      1.000000e-10  1.000000e+02  kp  1.0  0.0  1
kpkp203_mc1  log  factor   0.7807870      1.000000e-10  1.000000e+02  kp  1.0  0.0  1
kpkp204_br1  log  factor    26.92391      1.000000e-10  1.000000e+02  kp  1.0  0.0  1
kpkp205_mc1  log  factor   0.8397678      1.000000e-10  1.000000e+02  kp  1.0  0.0  1
kpkp206_mc1  log  factor   0.4185847      1.000000e-10  1.000000e+02  kp  1.0  0.0  1
kpkp207_mc1  log  factor   0.4056727      1.000000e-10  1.000000e+02  kp  1.0  0.0  1
kpkp208_tn1  log  factor    100.0000      1.000000e-10  1.000000e+02  kp  1.0  0.0  1
kpkp209_ks1  log  factor    100.0000      1.000000e-10  1.000000e+02  kp  1.0  0.0  1
kpkp217_ts1  log  factor    9.104170      1.000000e-10  1.000000e+02  kp  1.0  0.0  1
kpkp218_ts1  log  factor    5.470316      1.000000e-10  1.000000e+02  kp  1.0  0.0  1
kpkp219_ts1  log  factor    2.951361      1.000000e-10  1.000000e+02  kp  1.0  0.0  1
kpkp220_br1  log  factor    16.51488      1.000000e-10  1.000000e+02  kp  1.0  0.0  1
kpkp221_br1  log  factor    15.01648      1.000000e-10  1.000000e+02  kp  1.0  0.0  1
kpkp222_br1  log  factor    41.00247      1.000000e-10  1.000000e+02  kp  1.0  0.0  1
kpkp223_br1  log  factor    100.0000      1.000000e-10  1.000000e+02  kp  1.0  0.0  1
kpkp224_ks1  log  factor    100.0000      1.000000e-10  1.000000e+02  kp  1.0  0.0  1
kpkp225_ks1  log  factor    100.0000      1.000000e-10  1.000000e+02  kp  1.0  0.0  1
kpkp235_br1  log  factor    20.40897      1.000000e-10  1.000000e+02  kp  1.0  0.0  1
kpkp236_ts1  log  factor    23.21095      1.000000e-10  1.000000e+02  kp  1.0  0.0  1
kpkp237_br1  log  factor    16.53008      1.000000e-10  1.000000e+02  kp  1.0  0.0  1
kpkp238_br1  log  factor    16.53047      1.000000e-10  1.000000e+02  kp  1.0  0.0  1
kpkp239_br1  log  factor    15.87592      1.000000e-10  1.000000e+02  kp  1.0  0.0  1
kpkp240_br1  log  factor    16.30729      1.000000e-10  1.000000e+02  kp  1.0  0.0  1
kpkp253_br1  log  factor    17.86501      1.000000e-10  1.000000e+02  kp  1.0  0.0  1
kpkp255_br1  log  factor    16.43503      1.000000e-10  1.000000e+02  kp  1.0  0.0  1
kpkp256_br1  log  factor    20.23136      1.000000e-10  1.000000e+02  kp  1.0  0.0  1
kpkp162_br1  log  factor    37.88663      1.000000e-10  1.000000e+02  kp  1.0  0.0  1
kpkp178_br1  log  factor    16.09121      1.000000e-10  1.000000e+02  kp  1.0  0.0  1
kpkp179_br1  log  factor    11.39483      1.000000e-10  1.000000e+02  kp  1.0  0.0  1
kpkp194_br1  log  factor    16.51293      1.000000e-10  1.000000e+02  kp  1.0  0.0  1
kpkp195_br1  log  factor    15.81689      1.000000e-10  1.000000e+02  kp  1.0  0.0  1
kpkp196_br1  log  factor    14.92655      1.000000e-10  1.000000e+02  kp  1.0  0.0  1
kpkp210_br1  log  factor    17.53539      1.000000e-10  1.000000e+02  kp  1.0  0.0  1
kpkp211_br1  log  factor    15.78148      1.000000e-10  1.000000e+02  kp  1.0  0.0  1
kpkp212_br1  log  factor    16.47441      1.000000e-10  1.000000e+02  kp  1.0  0.0  1
kpkp226_br1  log  factor    12.31196      1.000000e-10  1.000000e+02  kp  1.0  0.0  1
kpkp227_br1  log  factor    17.37157      1.000000e-10  1.000000e+02  kp  1.0  0.0  1
kpkp228_br1  log  factor    16.98557      1.000000e-10  1.000000e+02  kp  1.0  0.0  1
kpkp241_br1  log  factor    15.20186      1.000000e-10  1.000000e+02  kp  1.0  0.0  1
kpkp242_br1  log  factor    17.00924      1.000000e-10  1.000000e+02  kp  1.0  0.0  1
kpkp243_br1  log  factor    12.07567      1.000000e-10  1.000000e+02  kp  1.0  0.0  1
kpkp180_br1  log  factor    11.33283      1.000000e-10  1.000000e+02  kp  1.0  0.0  1
kpkp197_br1  log  factor    3.244271      1.000000e-10  1.000000e+02  kp  1.0  0.0  1
kpkp198_br1  log  factor    17.20529      1.000000e-10  1.000000e+02  kp  1.0  0.0  1
kpkp213_br1  log  factor    17.65686      1.000000e-10  1.000000e+02  kp  1.0  0.0  1
kpkp214_br1  log  factor    14.78928      1.000000e-10  1.000000e+02  kp  1.0  0.0  1
kpkp215_br1  log  factor    17.62989      1.000000e-10  1.000000e+02  kp  1.0  0.0  1
kpkp216_ts1  log  factor    16.32953      1.000000e-10  1.000000e+02  kp  1.0  0.0  1
kpkp229_br1  log  factor    16.44019      1.000000e-10  1.000000e+02  kp  1.0  0.0  1
kpkp230_br1  log  factor    16.60151      1.000000e-10  1.000000e+02  kp  1.0  0.0  1
kpkp231_ts1  log  factor    15.82465      1.000000e-10  1.000000e+02  kp  1.0  0.0  1
kpkp232_ts1  log  factor    17.66967      1.000000e-10  1.000000e+02  kp  1.0  0.0  1
kpkp233_ts1  log  factor    16.53666      1.000000e-10  1.000000e+02  kp  1.0  0.0  1
kpkp234_ts1  log  factor    16.50948      1.000000e-10  1.000000e+02  kp  1.0  0.0  1
kpkp245_br1  log  factor    19.01419      1.000000e-10  1.000000e+02  kp  1.0  0.0  1
kpkp246_br1  log  factor    16.71608      1.000000e-10  1.000000e+02  kp  1.0  0.0  1
kpkp247_ts1  log  factor    16.69237      1.000000e-10  1.000000e+02  kp  1.0  0.0  1
kpkp248_ts1  log  factor    16.34336      1.000000e-10  1.000000e+02  kp  1.0  0.0  1
kpkp249_ts1  log  factor    18.07199      1.000000e-10  1.000000e+02  kp  1.0  0.0  1
kpkp250_ts1  log  factor    13.39459      1.000000e-10  1.000000e+02  kp  1.0  0.0  1
kpkp251_ts1  log  factor    11.59688      1.000000e-10  1.000000e+02  kp  1.0  0.0  1
kpkp252_ts1  log  factor    16.80668      1.000000e-10  1.000000e+02  kp  1.0  0.0  1
kpkp254_br1  log  factor    20.69505      1.000000e-10  1.000000e+02  kp  1.0  0.0  1
kpkp257_ts1  log  factor    16.72378      1.000000e-10  1.000000e+02  kp  1.0  0.0  1
kpkp258_br1  log  factor    12.68926      1.000000e-10  1.000000e+02  kp  1.0  0.0  1
kpkp259_br1  log  factor    16.73174      1.000000e-10  1.000000e+02  kp  1.0  0.0  1
kpkp260_br1  log  factor    16.56940      1.000000e-10  1.000000e+02  kp  1.0  0.0  1
kpkp261_br1  log  factor    16.51086      1.000000e-10  1.000000e+02  kp  1.0  0.0  1
kpkp262_ts1  log  factor    15.32889      1.000000e-10  1.000000e+02  kp  1.0  0.0  1
kpkp263_ts1  log  factor    14.08630      1.000000e-10  1.000000e+02  kp  1.0  0.0  1
kpkp264_ts1  log  factor    15.32993      1.000000e-10  1.000000e+02  kp  1.0  0.0  1
kpkp265_ts1  log  factor    16.45347      1.000000e-10  1.000000e+02  kp  1.0  0.0  1
kpkp266_ts1  log  factor    15.82941      1.000000e-10  1.000000e+02  kp  1.0  0.0  1
kpkp267_ts1  log  factor    17.38276      1.000000e-10  1.000000e+02  kp  1.0  0.0  1
kpkp268_ts1  log  factor    17.18988      1.000000e-10  1.000000e+02  kp  1.0  0.0  1
kpkp269_ts1  log  factor    11.59987      1.000000e-10  1.000000e+02  kp  1.0  0.0  1
kpkp270_ts1  log  factor    16.39796      1.000000e-10  1.000000e+02  kp  1.0  0.0  1
kpkp271_ts1  log  factor    17.02552      1.000000e-10  1.000000e+02  kp  1.0  0.0  1
kpkp272_ts1  log  factor    17.39049      1.000000e-10  1.000000e+02  kp  1.0  0.0  1
kpkp273_br1  log  factor    16.48742      1.000000e-10  1.000000e+02  kp  1.0  0.0  1
kpkp274_br1  log  factor    16.42174      1.000000e-10  1.000000e+02  kp  1.0  0.0  1
kpkp275_ts1  log  factor    15.59908      1.000000e-10  1.000000e+02  kp  1.0  0.0  1
kpkp276_ts1  log  factor    16.46573      1.000000e-10  1.000000e+02  kp  1.0  0.0  1
kpkp277_ts1  log  factor    16.86416      1.000000e-10  1.000000e+02  kp  1.0  0.0  1
kpkp278_ts1  log  factor    16.54001      1.000000e-10  1.000000e+02  kp  1.0  0.0  1
kpkp279_ts1  log  factor    17.73296      1.000000e-10  1.000000e+02  kp  1.0  0.0  1
kpkp280_ts1  log  factor    16.81752      1.000000e-10  1.000000e+02  kp  1.0  0.0  1
kpkp281_ts1  log  factor    15.47953      1.000000e-10  1.000000e+02  kp  1.0  0.0  1
kpkp282_ts1  log  factor    16.34325      1.000000e-10  1.000000e+02  kp  1.0  0.0  1
kpkp283_ts1  log  factor    14.98198      1.000000e-10  1.000000e+02  kp  1.0  0.0  1
kpkp284_ts1  log  factor    17.45290      1.000000e-10  1.000000e+02  kp  1.0  0.0  1
kpkp285_ts1  log  factor    15.91625      1.000000e-10  1.000000e+02  kp  1.0  0.0  1
kpkp286_ts1  log  factor    16.58088      1.000000e-10  1.000000e+02  kp  1.0  0.0  1
kpkp287_ts1  log  factor    14.11713      1.000000e-10  1.000000e+02  kp  1.0  0.0  1
kpkp288_ts1  log  factor    18.57900      1.000000e-10  1.000000e+02  kp  1.0  0.0  1
kpkp289_ts1  log  factor    16.50176      1.000000e-10  1.000000e+02  kp  1.0  0.0  1
kpkp290_ts1  log  factor    16.59976      1.000000e-10  1.000000e+02  kp  1.0  0.0  1
kpkp291_ts1  log  factor    16.45090      1.000000e-10  1.000000e+02  kp  1.0  0.0  1
kpkp292_ts1  log  factor    16.66010      1.000000e-10  1.000000e+02  kp  1.0  0.0  1
kpkp293_ts1  log  factor    8.642175      1.000000e-10  1.000000e+02  kp  1.0  0.0  1
kpkp294_ts1  log  factor    15.55811      1.000000e-10  1.000000e+02  kp  1.0  0.0  1
kpkp295_ts1  log  factor    19.96090      1.000000e-10  1.000000e+02  kp  1.0  0.0  1
kpkp296_ts1  log  factor    17.81932      1.000000e-10  1.000000e+02  kp  1.0  0.0  1
kpkp297_ts1  log  factor    10.06064      1.000000e-10  1.000000e+02  kp  1.0  0.0  1
kpkp298_ts1  log  factor    17.29926      1.000000e-10  1.000000e+02  kp  1.0  0.0  1
kpkp299_ts1  log  factor    16.42135      1.000000e-10  1.000000e+02  kp  1.0  0.0  1
kpkp300_ts1  log  factor    18.63198      1.000000e-10  1.000000e+02  kp  1.0  0.0  1
kpkp301_ts1  log  factor    16.76712      1.000000e-10  1.000000e+02  kp  1.0  0.0  1
kpkp302_ts1  log  factor    16.50079      1.000000e-10  1.000000e+02  kp  1.0  0.0  1
kpkp303_ts1  log  factor    16.49342      1.000000e-10  1.000000e+02  kp  1.0  0.0  1
kpkp304_ts1  log  factor    16.49663      1.000000e-10  1.000000e+02  kp  1.0  0.0  1
kpkp305_ts1  log  factor    16.54661      1.000000e-10  1.000000e+02  kp  1.0  0.0  1
kpkp306_ts1  log  factor    16.73742      1.000000e-10  1.000000e+02  kp  1.0  0.0  1
kpkp307_ts1  log  factor    16.52104      1.000000e-10  1.000000e+02  kp  1.0  0.0  1
kpkp308_ts1  log  factor    16.57422      1.000000e-10  1.000000e+02  kp  1.0  0.0  1
kpkp309_ts1  log  factor    16.61682      1.000000e-10  1.000000e+02  kp  1.0  0.0  1
kpkp310_ts1  log  factor    16.78908      1.000000e-10  1.000000e+02  kp  1.0  0.0  1
kpkp311_ts1  log  factor    10.82468      1.000000e-10  1.000000e+02  kp  1.0  0.0  1
kpkp312_ts1  log  factor    15.45197      1.000000e-10  1.000000e+02  kp  1.0  0.0  1
kpkp313_ts1  log  factor    19.02782      1.000000e-10  1.000000e+02  kp  1.0  0.0  1
kpkp314_ts1  log  factor    18.92440      1.000000e-10  1.000000e+02  kp  1.0  0.0  1
kpkp315_ts1  log  factor    12.57164      1.000000e-10  1.000000e+02  kp  1.0  0.0  1
kpkp316_ts1  log  factor    17.18941      1.000000e-10  1.000000e+02  kp  1.0  0.0  1
kpkp317_ts1  log  factor    16.26236      1.000000e-10  1.000000e+02  kp  1.0  0.0  1
kpkp318_ts1  log  factor    17.01735      1.000000e-10  1.000000e+02  kp  1.0  0.0  1
kpkp319_ts1  log  factor    16.91539      1.000000e-10  1.000000e+02  kp  1.0  0.0  1
kpkp320_ts1  log  factor    16.42710      1.000000e-10  1.000000e+02  kp  1.0  0.0  1
kpkp321_ts1  log  factor    16.55614      1.000000e-10  1.000000e+02  kp  1.0  0.0  1
kpkp322_ts1  log  factor    16.49806      1.000000e-10  1.000000e+02  kp  1.0  0.0  1
kpkp323_ts1  log  factor    16.50179      1.000000e-10  1.000000e+02  kp  1.0  0.0  1
kpkp324_ts1  log  factor    16.80524      1.000000e-10  1.000000e+02  kp  1.0  0.0  1
kpkp1_bf1  log  factor    5.072319      1.000000e-10  1.000000e+02  kp  1.0  0.0  1
kpkp2_mc1  log  factor    1.057017      1.000000e-10  1.000000e+02  kp  1.0  0.0  1
kpkp3_mc1  log  factor    1.226371      1.000000e-10  1.000000e+02  kp  1.0  0.0  1
kpkp4_mc1  log  factor    1.494308      1.000000e-10  1.000000e+02  kp  1.0  0.0  1
kpkp5_mc1  tied  factor    1.494308      1.000000e-10  1.000000e+02  kp  1.0  0.0  1
kpkp6_mc1  tied  factor    1.494308      1.000000e-10  1.000000e+02  kp  1.0  0.0  1
kpkp7_mc1  tied  factor    1.009947      1.000000e-10  1.000000e+02  kp  1.0  0.0  1
kpkp8_mc1  tied  factor   0.9834864      1.000000e-10  1.000000e+02  kp  1.0  0.0  1
kpkp9_mc1  tied  factor   0.9888933      1.000000e-10  1.000000e+02  kp  1.0  0.0  1
kpkp10_mc1  tied  factor   0.9888933      1.000000e-10  1.000000e+02  kp  1.0  0.0  1
kpkp11_mc1  tied  factor   0.9888933      1.000000e-10  1.000000e+02  kp  1.0  0.0  1
kpkp12_mc1  tied  factor   0.9888933      1.000000e-10  1.000000e+02  kp  1.0  0.0  1
kpkp13_mc1  tied  factor    1.015231      1.000000e-10  1.000000e+02  kp  1.0  0.0  1
kpkp14_mc1  tied  factor    1.015231      1.000000e-10  1.000000e+02  kp  1.0  0.0  1
kpkp15_mc1  tied  factor   0.9998591      1.000000e-10  1.000000e+02  kp  1.0  0.0  1
kpkp16_mc1  tied  factor   0.9999312      1.000000e-10  1.000000e+02  kp  1.0  0.0  1
kpkp17_mc1  tied  factor   0.9999312      1.000000e-10  1.000000e+02  kp  1.0  0.0  1
kpkp18_mc1  tied  factor   0.9999312      1.000000e-10  1.000000e+02  kp  1.0  0.0  1
kpkp19_bf1  log  factor    100.0000      1.000000e-10  1.000000e+02  kp  1.0  0.0  1
kpkp20_mc1  log  factor    1.178312      1.000000e-10  1.000000e+02  kp  1.0  0.0  1
kpkp21_mc1  log  factor    1.444313      1.000000e-10  1.000000e+02  kp  1.0  0.0  1
kpkp22_mc1  log  factor   0.8242076      1.000000e-10  1.000000e+02  kp  1.0  0.0  1
kpkp23_mc1  tied  factor   0.8242076      1.000000e-10  1.000000e+02  kp  1.0  0.0  1
kpkp24_mc1  tied  factor    1.009947      1.000000e-10  1.000000e+02  kp  1.0  0.0  1
kpkp25_mc1  tied  factor    1.009947      1.000000e-10  1.000000e+02  kp  1.0  0.0  1
kpkp26_mc1  tied  factor   0.9834864      1.000000e-10  1.000000e+02  kp  1.0  0.0  1
kpkp27_mc1  tied  factor   0.9888933      1.000000e-10  1.000000e+02  kp  1.0  0.0  1
kpkp28_mc1  tied  factor   0.9888933      1.000000e-10  1.000000e+02  kp  1.0  0.0  1
kpkp29_mc1  tied  factor   0.9888933      1.000000e-10  1.000000e+02  kp  1.0  0.0  1
kpkp30_mc1  tied  factor    1.315784      1.000000e-10  1.000000e+02  kp  1.0  0.0  1
kpkp31_mc1  tied  factor    1.015231      1.000000e-10  1.000000e+02  kp  1.0  0.0  1
kpkp32_mc1  tied  factor    1.015231      1.000000e-10  1.000000e+02  kp  1.0  0.0  1
kpkp33_mc1  tied  factor   0.9998591      1.000000e-10  1.000000e+02  kp  1.0  0.0  1
kpkp34_mc1  tied  factor   0.9999312      1.000000e-10  1.000000e+02  kp  1.0  0.0  1
kpkp35_mc1  tied  factor   0.9999312      1.000000e-10  1.000000e+02  kp  1.0  0.0  1
kpkp36_mc1  tied  factor   0.9999312      1.000000e-10  1.000000e+02  kp  1.0  0.0  1
kpkp37_mc1  log  factor    1.016501      1.000000e-10  1.000000e+02  kp  1.0  0.0  1
kpkp38_mc1  log  factor    1.112689      1.000000e-10  1.000000e+02  kp  1.0  0.0  1
kpkp39_mc1  log  factor   0.9539073      1.000000e-10  1.000000e+02  kp  1.0  0.0  1
kpkp40_mc1  tied  factor   0.8242076      1.000000e-10  1.000000e+02  kp  1.0  0.0  1
kpkp41_mc1  tied  factor   0.8242076      1.000000e-10  1.000000e+02  kp  1.0  0.0  1
kpkp42_mc1  tied  factor    1.009947      1.000000e-10  1.000000e+02  kp  1.0  0.0  1
kpkp43_mc1  log  factor    1.009947      1.000000e-10  1.000000e+02  kp  1.0  0.0  1
kpkp44_mc1  log  factor   0.9834864      1.000000e-10  1.000000e+02  kp  1.0  0.0  1
kpkp45_mc1  log  factor   0.9888933      1.000000e-10  1.000000e+02  kp  1.0  0.0  1
kpkp46_mc1  tied  factor   0.9888933      1.000000e-10  1.000000e+02  kp  1.0  0.0  1
kpkp47_mc1  tied  factor    1.315784      1.000000e-10  1.000000e+02  kp  1.0  0.0  1
kpkp48_mc1  tied  factor   0.8527598      1.000000e-10  1.000000e+02  kp  1.0  0.0  1
kpkp49_mc1  tied  factor    1.015231      1.000000e-10  1.000000e+02  kp  1.0  0.0  1
kpkp50_mc1  tied  factor    1.015231      1.000000e-10  1.000000e+02  kp  1.0  0.0  1
kpkp51_mc1  tied  factor   0.9998591      1.000000e-10  1.000000e+02  kp  1.0  0.0  1
kpkp52_mc1  tied  factor   0.9998591      1.000000e-10  1.000000e+02  kp  1.0  0.0  1
kpkp53_mc1  tied  factor   0.9999312      1.000000e-10  1.000000e+02  kp  1.0  0.0  1
kpkp54_mc1  tied  factor   0.9999312      1.000000e-10  1.000000e+02  kp  1.0  0.0  1
kpkp55_mc1  log  factor    1.000646      1.000000e-10  1.000000e+02  kp  1.0  0.0  1
kpkp56_mc1  log  factor   0.8332575      1.000000e-10  1.000000e+02  kp  1.0  0.0  1
kpkp57_mc1  log  factor    1.106056      1.000000e-10  1.000000e+02  kp  1.0  0.0  1
kpkp58_mc1  tied  factor    1.106056      1.000000e-10  1.000000e+02  kp  1.0  0.0  1
kpkp59_mc1  tied  factor    1.340257      1.000000e-10  1.000000e+02  kp  1.0  0.0  1
kpkp60_mc1  log  factor    1.340257      1.000000e-10  1.000000e+02  kp  1.0  0.0  1
kpkp61_mc1  log  factor   0.9971028      1.000000e-10  1.000000e+02  kp  1.0  0.0  1
kpkp62_mc1  log  factor   0.9556547      1.000000e-10  1.000000e+02  kp  1.0  0.0  1
kpkp63_mc1  log  factor    1.057063      1.000000e-10  1.000000e+02  kp  1.0  0.0  1
kpkp64_mc1  log  factor    1.315784      1.000000e-10  1.000000e+02  kp  1.0  0.0  1
kpkp65_mc1  tied  factor    1.315784      1.000000e-10  1.000000e+02  kp  1.0  0.0  1
kpkp66_mc1  tied  factor   0.8527598      1.000000e-10  1.000000e+02  kp  1.0  0.0  1
kpkp67_mc1  tied  factor    1.015231      1.000000e-10  1.000000e+02  kp  1.0  0.0  1
kpkp68_mc1  tied  factor    1.015231      1.000000e-10  1.000000e+02  kp  1.0  0.0  1
kpkp69_mc1  tied  factor   0.9998591      1.000000e-10  1.000000e+02  kp  1.0  0.0  1
kpkp70_mc1  tied  factor   0.9998591      1.000000e-10  1.000000e+02  kp  1.0  0.0  1
kpkp71_mc1  tied  factor   0.9999312      1.000000e-10  1.000000e+02  kp  1.0  0.0  1
kpkp72_mc1  log  factor   0.9999312      1.000000e-10  1.000000e+02  kp  1.0  0.0  1
kpkp73_mc1  log  factor    1.011554      1.000000e-10  1.000000e+02  kp  1.0  0.0  1
kpkp74_mc1  log  factor    1.051885      1.000000e-10  1.000000e+02  kp  1.0  0.0  1
kpkp75_mc1  log  factor   0.9485956      1.000000e-10  1.000000e+02  kp  1.0  0.0  1
kpkp76_mc1  log  factor    1.244888      1.000000e-10  1.000000e+02  kp  1.0  0.0  1
kpkp77_mc1  log  factor   0.9550203      1.000000e-10  1.000000e+02  kp  1.0  0.0  1
kpkp78_mc1  log  factor    1.220001      1.000000e-10  1.000000e+02  kp  1.0  0.0  1
kpkp79_mc1  log  factor    1.092729      1.000000e-10  1.000000e+02  kp  1.0  0.0  1
kpkp80_mc1  log  factor   0.9642140      1.000000e-10  1.000000e+02  kp  1.0  0.0  1
kpkp81_mc1  log  factor    1.176155      1.000000e-10  1.000000e+02  kp  1.0  0.0  1
kpkp82_mc1  log  factor   0.8568755      1.000000e-10  1.000000e+02  kp  1.0  0.0  1
kpkp83_mc1  log  factor    1.113297      1.000000e-10  1.000000e+02  kp  1.0  0.0  1
kpkp84_mc1  log  factor   0.8527598      1.000000e-10  1.000000e+02  kp  1.0  0.0  1
kpkp85_mc1  log  factor    1.015231      1.000000e-10  1.000000e+02  kp  1.0  0.0  1
kpkp86_mc1  tied  factor   0.9874151      1.000000e-10  1.000000e+02  kp  1.0  0.0  1
kpkp87_mc1  tied  factor   0.9881042      1.000000e-10  1.000000e+02  kp  1.0  0.0  1
kpkp88_mc1  log  factor   0.9998591      1.000000e-10  1.000000e+02  kp  1.0  0.0  1
kpkp91_mc1  log  factor    1.034507      1.000000e-10  1.000000e+02  kp  1.0  0.0  1
kpkp92_mc1  log  factor    1.109672      1.000000e-10  1.000000e+02  kp  1.0  0.0  1
kpkp93_mc1  log  factor   0.9963773      1.000000e-10  1.000000e+02  kp  1.0  0.0  1
kpkp94_mc1  log  factor    1.020371      1.000000e-10  1.000000e+02  kp  1.0  0.0  1
kpkp95_mc1  log  factor    1.043778      1.000000e-10  1.000000e+02  kp  1.0  0.0  1
kpkp96_mc1  log  factor    1.044870      1.000000e-10  1.000000e+02  kp  1.0  0.0  1
kpkp97_mc1  log  factor    1.003704      1.000000e-10  1.000000e+02  kp  1.0  0.0  1
kpkp98_mc1  log  factor   0.9838390      1.000000e-10  1.000000e+02  kp  1.0  0.0  1
kpkp99_mc1  log  factor   0.9945575      1.000000e-10  1.000000e+02  kp  1.0  0.0  1
kpkp100_mc1  log  factor    1.046861      1.000000e-10  1.000000e+02  kp  1.0  0.0  1
kpkp101_mc1  log  factor   0.9628184      1.000000e-10  1.000000e+02  kp  1.0  0.0  1
kpkp102_mc1  log  factor   0.9554706      1.000000e-10  1.000000e+02  kp  1.0  0.0  1
kpkp103_mc1  log  factor    1.673408      1.000000e-10  1.000000e+02  kp  1.0  0.0  1
kpkp104_mc1  log  factor   0.9874151      1.000000e-10  1.000000e+02  kp  1.0  0.0  1
kpkp105_mc1  log  factor   0.9881042      1.000000e-10  1.000000e+02  kp  1.0  0.0  1
kpkp109_mc1  log  factor    1.187847      1.000000e-10  1.000000e+02  kp  1.0  0.0  1
kpkp110_mc1  log  factor   0.8683776      1.000000e-10  1.000000e+02  kp  1.0  0.0  1
kpkp111_mc1  log  factor   0.9109364      1.000000e-10  1.000000e+02  kp  1.0  0.0  1
kpkp112_mc1  log  factor   0.9646560      1.000000e-10  1.000000e+02  kp  1.0  0.0  1
kpkp113_mc1  log  factor   0.9487646      1.000000e-10  1.000000e+02  kp  1.0  0.0  1
kpkp114_mc1  log  factor   0.8667399      1.000000e-10  1.000000e+02  kp  1.0  0.0  1
kpkp115_mc1  log  factor   0.9940718      1.000000e-10  1.000000e+02  kp  1.0  0.0  1
kpkp116_mc1  log  factor   0.9999333      1.000000e-10  1.000000e+02  kp  1.0  0.0  1
kpkp117_mc1  log  factor    1.001228      1.000000e-10  1.000000e+02  kp  1.0  0.0  1
kpkp118_mc1  log  factor   0.9937090      1.000000e-10  1.000000e+02  kp  1.0  0.0  1
kpkp119_mc1  log  factor    1.005769      1.000000e-10  1.000000e+02  kp  1.0  0.0  1
kpkp120_bh1  log  factor    9.012419      1.000000e-10  1.000000e+02  kp  1.0  0.0  1
kpkp121_bh1  log  factor    100.0000      1.000000e-10  1.000000e+02  kp  1.0  0.0  1
kpkp127_mc1  log  factor    1.021642      1.000000e-10  1.000000e+02  kp  1.0  0.0  1
kpkp128_mc1  log  factor   0.7781443      1.000000e-10  1.000000e+02  kp  1.0  0.0  1
kpkp129_mc1  log  factor   0.9518619      1.000000e-10  1.000000e+02  kp  1.0  0.0  1
kpkp130_mc1  log  factor   0.9498931      1.000000e-10  1.000000e+02  kp  1.0  0.0  1
kpkp131_mc1  log  factor   0.6145569      1.000000e-10  1.000000e+02  kp  1.0  0.0  1
kpkp132_mc1  log  factor   0.9475819      1.000000e-10  1.000000e+02  kp  1.0  0.0  1
kpkp133_mc1  log  factor   0.9388277      1.000000e-10  1.000000e+02  kp  1.0  0.0  1
kpkp134_mc1  log  factor    1.000000      1.000000e-10  1.000000e+02  kp  1.0  0.0  1
kpkp135_mc1  log  factor    1.000000      1.000000e-10  1.000000e+02  kp  1.0  0.0  1
kpkp136_mc1  log  factor    1.000366      1.000000e-10  1.000000e+02  kp  1.0  0.0  1
kpkp137_mc1  log  factor   0.9860863      1.000000e-10  1.000000e+02  kp  1.0  0.0  1
kpkp138_mc1  log  factor    1.133845      1.000000e-10  1.000000e+02  kp  1.0  0.0  1
kpkp145_mc1  log  factor    1.068144      1.000000e-10  1.000000e+02  kp  1.0  0.0  1
kpkp146_mc1  log  factor    1.178326      1.000000e-10  1.000000e+02  kp  1.0  0.0  1
kpkp147_mc1  log  factor   0.8771850      1.000000e-10  1.000000e+02  kp  1.0  0.0  1
kpkp148_mc1  log  factor    1.017748      1.000000e-10  1.000000e+02  kp  1.0  0.0  1
kpkp149_mc1  log  factor   0.8671357      1.000000e-10  1.000000e+02  kp  1.0  0.0  1
kpkp150_mc1  log  factor   0.8101798      1.000000e-10  1.000000e+02  kp  1.0  0.0  1
kpkp151_mc1  log  factor   0.9228945      1.000000e-10  1.000000e+02  kp  1.0  0.0  1
kpkp152_mc1  log  factor   0.9831686      1.000000e-10  1.000000e+02  kp  1.0  0.0  1
kpkp153_mc1  log  factor    1.000349      1.000000e-10  1.000000e+02  kp  1.0  0.0  1
kpkp154_mc1  log  factor    1.000000      1.000000e-10  1.000000e+02  kp  1.0  0.0  1
kpkp155_mc1  log  factor   0.9787190      1.000000e-10  1.000000e+02  kp  1.0  0.0  1
kpkp163_mc1  log  factor    1.268066      1.000000e-10  1.000000e+02  kp  1.0  0.0  1
kpkp164_mc1  log  factor   0.9317009      1.000000e-10  1.000000e+02  kp  1.0  0.0  1
kpkp165_mc1  log  factor   0.9633856      1.000000e-10  1.000000e+02  kp  1.0  0.0  1
kpkp166_mc1  log  factor   0.5721626      1.000000e-10  1.000000e+02  kp  1.0  0.0  1
kpkp167_mc1  log  factor   0.9527676      1.000000e-10  1.000000e+02  kp  1.0  0.0  1
kpkp168_mc1  log  factor    1.046184      1.000000e-10  1.000000e+02  kp  1.0  0.0  1
kpkp169_mc1  log  factor    1.238519      1.000000e-10  1.000000e+02  kp  1.0  0.0  1
kpkp170_mc1  log  factor   0.9867448      1.000000e-10  1.000000e+02  kp  1.0  0.0  1
kpkp171_mc1  log  factor   0.8505624      1.000000e-10  1.000000e+02  kp  1.0  0.0  1
kpkp172_mc1  log  factor    1.013957      1.000000e-10  1.000000e+02  kp  1.0  0.0  1
kpkp181_mc1  log  factor   0.8271182      1.000000e-10  1.000000e+02  kp  1.0  0.0  1
kpkp182_mc1  log  factor    1.498469      1.000000e-10  1.000000e+02  kp  1.0  0.0  1
kpkp183_mc1  log  factor    1.471538      1.000000e-10  1.000000e+02  kp  1.0  0.0  1
kpkp184_mc1  log  factor    1.045553      1.000000e-10  1.000000e+02  kp  1.0  0.0  1
kpkp185_mc1  log  factor   0.6889209      1.000000e-10  1.000000e+02  kp  1.0  0.0  1
kpkp186_mc1  log  factor   0.5264057      1.000000e-10  1.000000e+02  kp  1.0  0.0  1
kpkp187_mc1  log  factor   0.2410301      1.000000e-10  1.000000e+02  kp  1.0  0.0  1
kpkp188_mc1  log  factor   0.6727562      1.000000e-10  1.000000e+02  kp  1.0  0.0  1
kpkp189_mc1  log  factor   0.4671938      1.000000e-10  1.000000e+02  kp  1.0  0.0  1
kpkp190_mc1  log  factor   0.8788072      1.000000e-10  1.000000e+02  kp  1.0  0.0  1
kpkp199_mc1  log  factor    1.015827      1.000000e-10  1.000000e+02  kp  1.0  0.0  1
kpkp200_ts1  log  factor    5.438174      1.000000e-10  1.000000e+02  kp  1.0  0.0  1
kpkp201_mc1  log  factor    1.179384      1.000000e-10  1.000000e+02  kp  1.0  0.0  1
kpkp89_ss3  log  factor    2.499869      1.000000e-10  1.000000e+02  kp  1.0  0.0  1
kpkp90_vl3  log  factor    3.899693      1.000000e-10  1.000000e+02  kp  1.0  0.0  1
kpkp106_ss3  log  factor    2.527961      1.000000e-10  1.000000e+02  kp  1.0  0.0  1
kpkp107_vl3  log  factor    2.862118      1.000000e-10  1.000000e+02  kp  1.0  0.0  1
kpkp108_vl3  log  factor    3.579231      1.000000e-10  1.000000e+02  kp  1.0  0.0  1
kpkp122_ss3  log  factor    3.418979      1.000000e-10  1.000000e+02  kp  1.0  0.0  1
kpkp123_ss3  log  factor    2.870349      1.000000e-10  1.000000e+02  kp  1.0  0.0  1
kpkp124_vl3  log  factor    1.417017      1.000000e-10  1.000000e+02  kp  1.0  0.0  1
kpkp125_vl3  log  factor    4.561847      1.000000e-10  1.000000e+02  kp  1.0  0.0  1