pcf
* control data
             restart      regularisation
       586      2221         5      6368        21         0
        13         3              single               point         1         0         0          noobsreref
   2.000000E+01  -3.000000E+00   3.000000E-01   1.000000E-02       -10       999          lamforgive        noderforgive
   3.000000E+00   3.000000E+00   1.000000E-03         0         0
   1.000000E-01         1   1.100000E+00               noaui          nosenreuse        noboundscale
        20   1.000000E-02         3         3   1.000000E-02         3   1.000000E-04         0  -1.000000E+00
         0         0         0         1             jcosave        noverboserec        nojcosaveitn          reisaveitn          parsaveitn        noparsaverun
* singular value decomposition
       1
     580  5.00000000e-05
       1
* parameter groups
hk_pp                   relative              1.0000000000E-02       0.0  switch                2.0000000000E+00       parabolic             1.0000000000E-05      5.0000000000E-01       smaller              
vk_pp                   relative              1.0000000000E-02       0.0  switch                2.0000000000E+00       parabolic             1.0000000000E-05      5.0000000000E-01       smaller              
hk                      relative              1.0000000000E-02       0.0  switch                2.0000000000E+00       parabolic             1.0000000000E-05      5.0000000000E-01       smaller              
vk                      relative              1.0000000000E-02       0.0  switch                2.0000000000E+00       parabolic             1.0000000000E-05      5.0000000000E-01       smaller              
rch                     relative              1.0000000000E-02       0.0  switch                2.0000000000E+00       parabolic             1.0000000000E-05      5.0000000000E-01       smaller
* parameter data
hk_2                   log                    factor                9.4484255000E+00      2.0000000000E+00      2.0000000000E+01       hk                    1.0000000000E+00      0.0000000000E+00      1          
vk_2                   log                    factor                3.0488184000E-01      1.0000000000E-01      2.0000000000E+00       vk                    1.0000000000E+00      0.0000000000E+00      1          
hk_33                  log                    factor                1.3883513000E+00      1.0000000000E-01      4.0000000000E+00       hk                    1.0000000000E+00      0.0000000000E+00      1          
vk_33                  log                    factor                1.5541630000E-02      1.0000000000E-03      5.0000000000E-01       vk                    1.0000000000E+00      0.0000000000E+00      1          
hk_44                  log                    factor                2.0000000000E+01      2.0000000000E+00      2.5000000000E+01       hk                    1.0000000000E+00      0.0000000000E+00      1          
vk_44                  log                    factor                5.0000000000E-02      1.0000000000E-02      2.0000000000E+00       vk                    1.0000000000E+00      0.0000000000E+00      1          
hk_55                  log                    factor                7.9859785000E-01      1.0000000000E-01      4.0000000000E+00       hk                    1.0000000000E+00      0.0000000000E+00      1          
vk_55                  log                    factor                2.3018600000E-03      1.0000000000E-03      5.0000000000E-01       vk                    1.0000000000E+00      0.0000000000E+00      1          
hk_66                  log                    factor                1.5000000000E+00      1.0000000000E+00      2.0000000000E+01       hk                    1.0000000000E+00      0.0000000000E+00      1          
vk_66                  log                    factor                2.9082931000E-01      1.0000000000E-01      2.0000000000E+00       vk                    1.0000000000E+00      0.0000000000E+00      1          
rmult_______           log                    factor                1.0465281000E+00      8.0000000000E-01      1.2000000000E+00       rch                   1.0000000000E+00      0.0000000000E+00      1          
sfr_kmult              log                    factor                2.0000000000E-02      1.0000000000E-03      1.0000000000E+01       vk                    1.0000000000E+00      0.0000000000E+00      1          
hkp1_1                 log                    factor                2.3867847000E+01      1.0000000000E+00      1.5000000000E+02       hk_pp                 1.0000000000E+00      0.0000000000E+00      1          
hkp1_2                 log                    factor                2.3867847000E+01      1.0000000000E+00      1.5000000000E+02       hk_pp                 1.0000000000E+00      0.0000000000E+00      1          
hkp1_3                 log                    factor                2.3867847000E+01      1.0000000000E+00      1.5000000000E+02       hk_pp                 1.0000000000E+00      0.0000000000E+00      1          
hkp1_4                 log                    factor                2.3867847000E+01      1.0000000000E+00      1.5000000000E+02       hk_pp                 1.0000000000E+00      0.0000000000E+00      1          
hkp1_5                 log                    factor                2.3867847000E+01      1.0000000000E+00      1.5000000000E+02       hk_pp                 1.0000000000E+00      0.0000000000E+00      1          
hkp1_6                 log                    factor                2.3867847000E+01      1.0000000000E+00      1.5000000000E+02       hk_pp                 1.0000000000E+00      0.0000000000E+00      1          
hkp1_7                 log                    factor                2.3867847000E+01      1.0000000000E+00      1.5000000000E+02       hk_pp                 1.0000000000E+00      0.0000000000E+00      1          
hkp1_8                 log                    factor                2.3867847000E+01      1.0000000000E+00      1.5000000000E+02       hk_pp                 1.0000000000E+00      0.0000000000E+00      1          
hkp1_9                 log                    factor                2.3867847000E+01      1.0000000000E+00      1.5000000000E+02       hk_pp                 1.0000000000E+00      0.0000000000E+00      1          
hkp1_10                log                    factor                2.3867847000E+01      1.0000000000E+00      1.5000000000E+02       hk_pp                 1.0000000000E+00      0.0000000000E+00      1          
hkp1_11                log                    factor                2.3867847000E+01      1.0000000000E+00      1.5000000000E+02       hk_pp                 1.0000000000E+00      0.0000000000E+00      1          
hkp1_12                log                    factor                2.3867847000E+01      1.0000000000E+00      1.5000000000E+02       hk_pp                 1.0000000000E+00      0.0000000000E+00      1          
hkp1_13                log                    factor                2.3867847000E+01      1.0000000000E+00      1.5000000000E+02       hk_pp                 1.0000000000E+00      0.0000000000E+00      1          
hkp1_14                log                    factor                2.3867847000E+01      1.0000000000E+00      1.5000000000E+02       hk_pp                 1.0000000000E+00      0.0000000000E+00      1          
hkp1_15                log                    factor                2.3867847000E+01      1.0000000000E+00      1.5000000000E+02       hk_pp                 1.0000000000E+00      0.0000000000E+00      1          
hkp1_16                log                    factor                2.3867847000E+01      1.0000000000E+00      1.5000000000E+02       hk_pp                 1.0000000000E+00      0.0000000000E+00      1          
hkp1_17                log                    factor                2.3867847000E+01      1.0000000000E+00      1.5000000000E+02       hk_pp                 1.0000000000E+00      0.0000000000E+00      1          
hkp1_18                log                    factor                2.3867847000E+01      1.0000000000E+00      1.5000000000E+02       hk_pp                 1.0000000000E+00      0.0000000000E+00      1          
hkp1_19                log                    factor                2.3867847000E+01      1.0000000000E+00      1.5000000000E+02       hk_pp                 1.0000000000E+00      0.0000000000E+00      1          
hkp1_20                log                    factor                2.3867847000E+01      1.0000000000E+00      1.5000000000E+02       hk_pp                 1.0000000000E+00      0.0000000000E+00      1          
hkp1_21                log                    factor                2.3867847000E+01      1.0000000000E+00      1.5000000000E+02       hk_pp                 1.0000000000E+00      0.0000000000E+00      1          
hkp1_22                log                    factor                2.3867847000E+01      1.0000000000E+00      1.5000000000E+02       hk_pp                 1.0000000000E+00      0.0000000000E+00      1          
hkp1_23                log                    factor                2.3867847000E+01      1.0000000000E+00      1.5000000000E+02       hk_pp                 1.0000000000E+00      0.0000000000E+00      1          
hkp1_24                log                    factor                2.3867847000E+01      1.0000000000E+00      1.5000000000E+02       hk_pp                 1.0000000000E+00      0.0000000000E+00      1          
hkp1_25                log                    factor                2.3867847000E+01      1.0000000000E+00      1.5000000000E+02       hk_pp                 1.0000000000E+00      0.0000000000E+00      1          
hkp1_26                log                    factor                2.3867847000E+01      1.0000000000E+00      1.5000000000E+02       hk_pp                 1.0000000000E+00      0.0000000000E+00      1          
hkp1_27                log                    factor                2.3867847000E+01      1.0000000000E+00      1.5000000000E+02       hk_pp                 1.0000000000E+00      0.0000000000E+00      1          
hkp1_28                log                    factor                2.3867847000E+01      1.0000000000E+00      1.5000000000E+02       hk_pp                 1.0000000000E+00      0.0000000000E+00      1          
hkp1_29                log                    factor                2.3867847000E+01      1.0000000000E+00      1.5000000000E+02       hk_pp                 1.0000000000E+00      0.0000000000E+00      1          
hkp1_30                log                    factor                2.3867847000E+01      1.0000000000E+00      1.5000000000E+02       hk_pp                 1.0000000000E+00      0.0000000000E+00      1          
hkp1_31                log                    factor                2.3867847000E+01      1.0000000000E+00      1.5000000000E+02       hk_pp                 1.0000000000E+00      0.0000000000E+00      1          
hkp1_32                log                    factor                2.3867847000E+01      1.0000000000E+00      1.5000000000E+02       hk_pp                 1.0000000000E+00      0.0000000000E+00      1          
hkp1_33                log                    factor                2.3867847000E+01      1.0000000000E+00      1.5000000000E+02       hk_pp                 1.0000000000E+00      0.0000000000E+00      1          
hkp1_34                log                    factor                2.3867847000E+01      1.0000000000E+00      1.5000000000E+02       hk_pp                 1.0000000000E+00      0.0000000000E+00      1          
hkp1_35                log                    factor                2.3867847000E+01      1.0000000000E+00      1.5000000000E+02       hk_pp                 1.0000000000E+00      0.0000000000E+00      1          
hkp1_36                log                    factor                2.3867847000E+01      1.0000000000E+00      1.5000000000E+02       hk_pp                 1.0000000000E+00      0.0000000000E+00      1          
hkp1_37                log                    factor                2.3867847000E+01      1.0000000000E+00      1.5000000000E+02       hk_pp                 1.0000000000E+00      0.0000000000E+00      1          
hkp1_38                log                    factor                2.3867847000E+01      1.0000000000E+00      1.5000000000E+02       hk_pp                 1.0000000000E+00      0.0000000000E+00      1          
hkp1_39                log                    factor                2.3867847000E+01      1.0000000000E+00      1.5000000000E+02       hk_pp                 1.0000000000E+00      0.0000000000E+00      1          
hkp1_40                log                    factor                2.3867847000E+01      1.0000000000E+00      1.5000000000E+02       hk_pp                 1.0000000000E+00      0.0000000000E+00      1          
hkp1_41                log                    factor                2.3867847000E+01      1.0000000000E+00      1.5000000000E+02       hk_pp                 1.0000000000E+00      0.0000000000E+00      1          
hkp1_42                log                    factor                2.3867847000E+01      1.0000000000E+00      1.5000000000E+02       hk_pp                 1.0000000000E+00      0.0000000000E+00      1          
hkp1_43                log                    factor                2.3867847000E+01      1.0000000000E+00      1.5000000000E+02       hk_pp                 1.0000000000E+00      0.0000000000E+00      1          
hkp1_44                log                    factor                2.3867847000E+01      1.0000000000E+00      1.5000000000E+02       hk_pp                 1.0000000000E+00      0.0000000000E+00      1          
hkp1_45                log                    factor                2.3867847000E+01      1.0000000000E+00      1.5000000000E+02       hk_pp                 1.0000000000E+00      0.0000000000E+00      1          
hkp1_46                log                    factor                2.3867847000E+01      1.0000000000E+00      1.5000000000E+02       hk_pp                 1.0000000000E+00      0.0000000000E+00      1          
hkp1_47                log                    factor                2.3867847000E+01      1.0000000000E+00      1.5000000000E+02       hk_pp                 1.0000000000E+00      0.0000000000E+00      1          
hkp1_48                log                    factor                2.3867847000E+01      1.0000000000E+00      1.5000000000E+02       hk_pp                 1.0000000000E+00      0.0000000000E+00      1          
hkp1_49                log                    factor                2.3867847000E+01      1.0000000000E+00      1.5000000000E+02       hk_pp                 1.0000000000E+00      0.0000000000E+00      1          
hkp1_50                log                    factor                2.3867847000E+01      1.0000000000E+00      1.5000000000E+02       hk_pp                 1.0000000000E+00      0.0000000000E+00      1          
hkp1_51                log                    factor                2.3867847000E+01      1.0000000000E+00      1.5000000000E+02       hk_pp                 1.0000000000E+00      0.0000000000E+00      1          
hkp1_52                log                    factor                2.3867847000E+01      1.0000000000E+00      1.5000000000E+02       hk_pp                 1.0000000000E+00      0.0000000000E+00      1          
hkp1_53                log                    factor                2.3867847000E+01      1.0000000000E+00      1.5000000000E+02       hk_pp                 1.0000000000E+00      0.0000000000E+00      1          
hkp1_54                log                    factor                2.3867847000E+01      1.0000000000E+00      1.5000000000E+02       hk_pp                 1.0000000000E+00      0.0000000000E+00      1          
hkp1_55                log                    factor                2.3867847000E+01      1.0000000000E+00      1.5000000000E+02       hk_pp                 1.0000000000E+00      0.0000000000E+00      1          
hkp1_56                log                    factor                2.3867847000E+01      1.0000000000E+00      1.5000000000E+02       hk_pp                 1.0000000000E+00      0.0000000000E+00      1          
hkp1_57                log                    factor                2.3867847000E+01      1.0000000000E+00      1.5000000000E+02       hk_pp                 1.0000000000E+00      0.0000000000E+00      1          
hkp1_58                log                    factor                2.3867847000E+01      1.0000000000E+00      1.5000000000E+02       hk_pp                 1.0000000000E+00      0.0000000000E+00      1          
hkp1_59                log                    factor                2.3867847000E+01      1.0000000000E+00      1.5000000000E+02       hk_pp                 1.0000000000E+00      0.0000000000E+00      1          
hkp1_60                log                    factor                2.3867847000E+01      1.0000000000E+00      1.5000000000E+02       hk_pp                 1.0000000000E+00      0.0000000000E+00      1          
hkp1_61                log                    factor                2.3867847000E+01      1.0000000000E+00      1.5000000000E+02       hk_pp                 1.0000000000E+00      0.0000000000E+00      1          
hkp1_62                log                    factor                2.3867847000E+01      1.0000000000E+00      1.5000000000E+02       hk_pp                 1.0000000000E+00      0.0000000000E+00      1          
hkp1_63                log                    factor                2.3867847000E+01      1.0000000000E+00      1.5000000000E+02       hk_pp                 1.0000000000E+00      0.0000000000E+00      1          
hkp1_64                log                    factor                2.3867847000E+01      1.0000000000E+00      1.5000000000E+02       hk_pp                 1.0000000000E+00      0.0000000000E+00      1          
hkp1_65                log                    factor                2.3867847000E+01      1.0000000000E+00      1.5000000000E+02       hk_pp                 1.0000000000E+00      0.0000000000E+00      1          
hkp1_66                log                    factor                2.3867847000E+01      1.0000000000E+00      1.5000000000E+02       hk_pp                 1.0000000000E+00      0.0000000000E+00      1          
hkp1_67                log                    factor                2.3867847000E+01      1.0000000000E+00      1.5000000000E+02       hk_pp                 1.0000000000E+00      0.0000000000E+00      1          
hkp1_68                log                    factor                2.3867847000E+01      1.0000000000E+00      1.5000000000E+02       hk_pp                 1.0000000000E+00      0.0000000000E+00      1          
hkp1_69                log                    factor                2.3867847000E+01      1.0000000000E+00      1.5000000000E+02       hk_pp                 1.0000000000E+00      0.0000000000E+00      1          
hkp1_70                log                    factor                2.3867847000E+01      1.0000000000E+00      1.5000000000E+02       hk_pp                 1.0000000000E+00      0.0000000000E+00      1          
hkp1_71                log                    factor                2.3867847000E+01      1.0000000000E+00      1.5000000000E+02       hk_pp                 1.0000000000E+00      0.0000000000E+00      1          
hkp1_72                log                    factor                2.3867847000E+01      1.0000000000E+00      1.5000000000E+02       hk_pp                 1.0000000000E+00      0.0000000000E+00      1          
hkp1_73                log                    factor                2.3867847000E+01      1.0000000000E+00      1.5000000000E+02       hk_pp                 1.0000000000E+00      0.0000000000E+00      1          
hkp1_74                log                    factor                2.3867847000E+01      1.0000000000E+00      1.5000000000E+02       hk_pp                 1.0000000000E+00      0.0000000000E+00      1          
hkp1_75                log                    factor                2.3867847000E+01      1.0000000000E+00      1.5000000000E+02       hk_pp                 1.0000000000E+00      0.0000000000E+00      1          
hkp1_76                log                    factor                2.3867847000E+01      1.0000000000E+00      1.5000000000E+02       hk_pp                 1.0000000000E+00      0.0000000000E+00      1          
hkp1_77                log                    factor                2.3867847000E+01      1.0000000000E+00      1.5000000000E+02       hk_pp                 1.0000000000E+00      0.0000000000E+00      1          
hkp1_78                log                    factor                2.3867847000E+01      1.0000000000E+00      1.5000000000E+02       hk_pp                 1.0000000000E+00      0.0000000000E+00      1          
hkp1_79                log                    factor                2.3867847000E+01      1.0000000000E+00      1.5000000000E+02       hk_pp                 1.0000000000E+00      0.0000000000E+00      1          
hkp1_80                log                    factor                2.3867847000E+01      1.0000000000E+00      1.5000000000E+02       hk_pp                 1.0000000000E+00      0.0000000000E+00      1          
hkp1_81                log                    factor                2.3867847000E+01      1.0000000000E+00      1.5000000000E+02       hk_pp                 1.0000000000E+00      0.0000000000E+00      1          
hkp1_82                log                    factor                2.3867847000E+01      1.0000000000E+00      1.5000000000E+02       hk_pp                 1.0000000000E+00      0.0000000000E+00      1          
hkp1_83                log                    factor                2.3867847000E+01      1.0000000000E+00      1.5000000000E+02       hk_pp                 1.0000000000E+00      0.0000000000E+00      1          
hkp1_84                log                    factor                2.3867847000E+01      1.0000000000E+00      1.5000000000E+02       hk_pp                 1.0000000000E+00      0.0000000000E+00      1          
hkp1_85                log                    factor                2.3867847000E+01      1.0000000000E+00      1.5000000000E+02       hk_pp                 1.0000000000E+00      0.0000000000E+00      1          
hkp1_86                log                    factor                2.3867847000E+01      1.0000000000E+00      1.5000000000E+02       hk_pp                 1.0000000000E+00      0.0000000000E+00      1          
hkp1_87                log                    factor                2.3867847000E+01      1.0000000000E+00      1.5000000000E+02       hk_pp                 1.0000000000E+00      0.0000000000E+00      1          
hkp1_88                log                    factor                2.3867847000E+01      1.0000000000E+00      1.5000000000E+02       hk_pp                 1.0000000000E+00      0.0000000000E+00      1          
hkp1_89                log                    factor                2.3867847000E+01      1.0000000000E+00      1.5000000000E+02       hk_pp                 1.0000000000E+00      0.0000000000E+00      1          
hkp1_90                log                    factor                2.3867847000E+01      1.0000000000E+00      1.5000000000E+02       hk_pp                 1.0000000000E+00      0.0000000000E+00      1          
hkp1_91                log                    factor                2.3867847000E+01      1.0000000000E+00      1.5000000000E+02       hk_pp                 1.0000000000E+00      0.0000000000E+00      1          
hkp1_92                log                    factor                2.3867847000E+01      1.0000000000E+00      1.5000000000E+02       hk_pp                 1.0000000000E+00      0.0000000000E+00      1          
hkp1_93                log                    factor                2.3867847000E+01      1.0000000000E+00      1.5000000000E+02       hk_pp                 1.0000000000E+00      0.0000000000E+00      1          
hkp1_94                log                    factor                2.3867847000E+01      1.0000000000E+00      1.5000000000E+02       hk_pp                 1.0000000000E+00      0.0000000000E+00      1          
hkp1_95                log                    factor                2.3867847000E+01      1.0000000000E+00      1.5000000000E+02       hk_pp                 1.0000000000E+00      0.0000000000E+00      1          
hkp1_96                log                    factor                2.3867847000E+01      1.0000000000E+00      1.5000000000E+02       hk_pp                 1.0000000000E+00      0.0000000000E+00      1          
hkp1_97                log                    factor                2.3867847000E+01      1.0000000000E+00      1.5000000000E+02       hk_pp                 1.0000000000E+00      0.0000000000E+00      1          
hkp1_98                log                    factor                2.3867847000E+01      1.0000000000E+00      1.5000000000E+02       hk_pp                 1.0000000000E+00      0.0000000000E+00      1          
hkp1_99                log                    factor                2.3867847000E+01      1.0000000000E+00      1.5000000000E+02       hk_pp                 1.0000000000E+00      0.0000000000E+00      1          
hkp1_100               log                    factor                2.3867847000E+01      1.0000000000E+00      1.5000000000E+02       hk_pp                 1.0000000000E+00      0.0000000000E+00      1          
hkp1_101               log                    factor                2.3867847000E+01      1.0000000000E+00      1.5000000000E+02       hk_pp                 1.0000000000E+00      0.0000000000E+00      1          
hkp1_102               log                    factor                2.3867847000E+01      1.0000000000E+00      1.5000000000E+02       hk_pp                 1.0000000000E+00      0.0000000000E+00      1          
hkp1_103               log                    factor                2.3867847000E+01      1.0000000000E+00      1.5000000000E+02       hk_pp                 1.0000000000E+00      0.0000000000E+00      1          
hkp1_104               log                    factor                2.3867847000E+01      1.0000000000E+00      1.5000000000E+02       hk_pp                 1.0000000000E+00      0.0000000000E+00      1          
hkp1_105               log                    factor                2.3867847000E+01      1.0000000000E+00      1.5000000000E+02       hk_pp                 1.0000000000E+00      0.0000000000E+00      1          
hkp1_106               log                    factor                2.3867847000E+01      1.0000000000E+00      1.5000000000E+02       hk_pp                 1.0000000000E+00      0.0000000000E+00      1          
hkp1_107               log                    factor                2.3867847000E+01      1.0000000000E+00      1.5000000000E+02       hk_pp                 1.0000000000E+00      0.0000000000E+00      1          
hkp1_108               log                    factor                2.3867847000E+01      1.0000000000E+00      1.5000000000E+02       hk_pp                 1.0000000000E+00      0.0000000000E+00      1          
hkp1_109               log                    factor                2.3867847000E+01      1.0000000000E+00      1.5000000000E+02       hk_pp                 1.0000000000E+00      0.0000000000E+00      1          
hkp1_110               log                    factor                2.3867847000E+01      1.0000000000E+00      1.5000000000E+02       hk_pp                 1.0000000000E+00      0.0000000000E+00      1          
hkp1_111               log                    factor                2.3867847000E+01      1.0000000000E+00      1.5000000000E+02       hk_pp                 1.0000000000E+00      0.0000000000E+00      1          
hkp1_112               log                    factor                2.3867847000E+01      1.0000000000E+00      1.5000000000E+02       hk_pp                 1.0000000000E+00      0.0000000000E+00      1          
hkp1_113               log                    factor                2.3867847000E+01      1.0000000000E+00      1.5000000000E+02       hk_pp                 1.0000000000E+00      0.0000000000E+00      1          
hkp1_114               log                    factor                2.3867847000E+01      1.0000000000E+00      1.5000000000E+02       hk_pp                 1.0000000000E+00      0.0000000000E+00      1          
hkp1_115               log                    factor                2.3867847000E+01      1.0000000000E+00      1.5000000000E+02       hk_pp                 1.0000000000E+00      0.0000000000E+00      1          
hkp1_116               log                    factor                2.3867847000E+01      1.0000000000E+00      1.5000000000E+02       hk_pp                 1.0000000000E+00      0.0000000000E+00      1          
hkp1_117               log                    factor                2.3867847000E+01      1.0000000000E+00      1.5000000000E+02       hk_pp                 1.0000000000E+00      0.0000000000E+00      1          
hkp1_118               log                    factor                2.3867847000E+01      1.0000000000E+00      1.5000000000E+02       hk_pp                 1.0000000000E+00      0.0000000000E+00      1          
hkp1_119               log                    factor                2.3867847000E+01      1.0000000000E+00      1.5000000000E+02       hk_pp                 1.0000000000E+00      0.0000000000E+00      1          