pcf
* control data
restart regularisation
      15    4833       5      12      12
1  1  double  point  1  0  0
2.000000e+001  -3.000000e+000  3.000000e-001  1.000000e-002  10 999 lamforgive
1.000000e+001  1.000000e+001  1.000000e-003
1.000000e-001 noaui
20  1.000000e-003  3  3  1.000000e-002  3
0 0 0 REISAVEITN PARSAVEITN
* parameter groups
Kh     relative   1.000000e-002  0.000000e+000  switch  2.000000e+000  parabolic
Base   relative   1.000000e-002  0.000000e+000  switch  2.000000e+000  parabolic
Khi    relative   1.000000e-002  0.000000e+000  switch  2.000000e+000  parabolic
Rch    relative   1.000000e-002  0.000000e+000  switch  2.000000e+000  parabolic
Res    relative   1.000000e-002  0.000000e+000  switch  2.000000e+000  parabolic
* parameter data
Kglobal_____  log  factor  15  1.00E-10  1.00E+10  Kh  1  0  1
BaseElev____  none  factor  45  1.00E-10  1.00E+10  Base  10  0  1
Kdriftless1_  log  factor  15  1.00E-10  1.00E+10  Khi  1  0  1
Koutwash____  log  factor  50  1.00E-10  1.00E+10  Khi  1  0  1
KoutwashN___  log  factor  11.205  1.00E-10  1.00E+10  Khi  10  0  1
Kuplands____  log  factor  1.991  1.00E-10  1.00E+10  Khi  1  0  1
Kwiscriver__  log  factor  11.205  1.00E-10  1.00E+10  Khi  10  0  1
Rdriftless__  none  factor  0.1  1.00E-10  1.00E+10  Rch  -0.001  0  1
Rdrumlin____  none  factor  0.3  1.00E-10  1.00E+10  Rch  0.001  0  1
Rglobal_____  none  factor  1.8  1.00E-10  1.00E+10  Rch  -0.001  0  1
Rlow________  none  factor  0.8  1.00E-10  1.00E+10  Rch  0.001  0  1
RoutwashN___  none  factor  0.1  1.00E-10  1.00E+10  Rch  -0.001  0  1
Cstream_____  fixed  factor  0.5  1.00E-10  1.00E+10  Res  1  0  1
lakeC_______  fixed  factor  2  1.00E-10  1.00E+10  Res  1  0  1
resistance__  fixed  factor  0.5  1.00E-10  1.00E+10  Res  1  0  1
* observation groups
head_best
head_fair
head_good
head_poor
Lrg_streams
Med_streams
Sm_streams
headwaters
regul_kh
regul_base
regul_khi
regul_rch
* observation data
 6089030301_best 852.449 0.2 head_best
 3088472201_best 789.361 0.2 head_best
 8089294301_best 981.626 0.2 head_best
 9089241501_best 809.405 0.2 head_best
 3089184701_best 831.991 0.2 head_best
 5089243101_best 847.056 0.2 head_best
 6089232901_best 847.959 0.2 head_best
 7089284901_best 867.195 0.2 head_best
 9089230301_best 828.872 0.2 head_best
 0089224901_best 797.241 0.2 head_best
 6089190601_best 843.139 0.2 head_best
 6089224101_best 795.27 0.2 head_best
 1088492001_best 806.006 0.2 head_best
 1089212801_best 797.793 0.2 head_best
 2089395301_best 853.719 0.2 head_best
 8089385701_best 866.988 0.2 head_best
 8089385901_best 866.938 0.2 head_best
 9089385801_best 866.52 0.2 head_best
 8089291501_best 863.488 0.2 head_best
 9089185401_best 841.998 0.2 head_best
 7089222501_best 858.133 0.2 head_best
 8089444501_best 805.222 0.2 head_best
 1089192101_best 893.238 0.2 head_best
 2089103101_best 924.601 0.2 head_best
 3089103201_best 911.438 0.2 head_best
 2089475301_best 729.25 0.2 head_best
 6088541201_best 869.908 0.2 head_best
 0089440001_best 815.407 0.2 head_best
 1089460101_best 798.368 0.2 head_best
 5088552601_best 852.594 0.2 head_best
 4089114801_best 964.427 0.2 head_best
 2089204601_best 811.966 0.2 head_best
 6089275601_best 783.533 0.2 head_best
 4089100701_best 791.1 0.2 head_best
 4089471201_best 859.64 0.2 head_best
 1089365001_best 879.88 0.2 head_best
 5089184801_best 790.924 0.2 head_best
 1088592301_good 841.65 0.2 head_good
 7088592501_good 833.55 0.2 head_good
 1088581401_good 834.0 0.2 head_good
 1088584601_good 837.06 0.2 head_good
 8088584201_good 831.0 0.2 head_good
 8088585601_good 839.0 0.2 head_good
 0088585401_good 836.0 0.2 head_good
 4089001201_good 839.77 0.2 head_good
 6089003001_good 844.17 0.2 head_good
 9088592701_good 836.44 0.2 head_good
 0089004201_good 832.59 0.2 head_good
 1088563301_good 847.037 0.2 head_good
 3088593901_good 832.0 0.2 head_good
 8089181101_good 820.811 0.2 head_good
 2088593201_good 839.91 0.2 head_good
 5089242701_good 855.16 0.2 head_good
 7089245901_good 865.86 0.2 head_good
 8089251401_good 843.77 0.2 head_good
 0088584501_good 843.01 0.2 head_good
 8088583001_good 845.27 0.2 head_good
 4088473501_good 824.545 0.2 head_good
 4089150201_good 865.0 0.2 head_good
 0089233602_good 820.96 0.2 head_good
 5089260401_good 854.0 0.2 head_good
 0089223702_good 740.62 0.2 head_good
 2089351401_good 877.07 0.2 head_good
 6089344501_good 919.17 0.2 head_good
 7089450001_good 830.007 0.2 head_good
 6089231801_good 858.78 0.2 head_good
 3089174301_good 868.06 0.2 head_good
 0089481301_good 754.747 0.2 head_good
 7088590201_good 813.0 0.2 head_good
 0088561001_good 803.0 0.2 head_good
 6089470201_good 745.0 0.2 head_good
 6089414401_good 830.0 0.2 head_good
 6088593801_good 835.0 0.2 head_good
 7088563401_good 837.0 0.2 head_good
 7088565901_good 791.0 0.2 head_good
 7089483001_good 728.17 0.2 head_good
 2089433401_good 709.739 0.2 head_good
 3089215301_good 885.326 0.2 head_good
 2089432801_good 866.407 0.2 head_good
 8089162501_good 936.53 0.2 head_good
 6089235301_good 780.0 0.2 head_good
 3089270501_good 782.814 0.2 head_good
 9089510601_good 888.453 0.2 head_good
 1088585501_good 878.4 0.2 head_good
 6089170001_fair 840.0 0.0333333333333 head_fair
 7089170101_fair 860.0 0.0333333333333 head_fair
 8089172201_fair 841.25 0.0333333333333 head_fair
 6089172701_fair 844.0 0.0333333333333 head_fair
 0089164801_fair 866.0 0.0333333333333 head_fair
 3089135701_fair 838.0 0.0333333333333 head_fair
 6089020001_fair 817.0 0.0333333333333 head_fair
 0088595101_fair 834.0 0.0333333333333 head_fair
 0089055401_fair 933.0 0.0333333333333 head_fair
 3088594101_fair 840.0 0.0333333333333 head_fair
 0088571301_fair 864.0 0.0333333333333 head_fair
 7088555201_fair 862.0 0.0333333333333 head_fair
 7089003601_fair 837.0 0.0333333333333 head_fair
 9089002401_fair 830.0 0.0333333333333 head_fair
 0089010201_fair 824.0 0.0333333333333 head_fair
 1089233901_fair 892.0 0.0333333333333 head_fair
 2088503401_fair 808.0 0.0333333333333 head_fair
 4088590601_fair 813.0 0.0333333333333 head_fair
 4088590901_fair 811.0 0.0333333333333 head_fair
 4089002201_fair 829.0 0.0333333333333 head_fair
 4089224001_fair 867.0 0.0333333333333 head_fair
 7089112501_fair 878.0 0.0333333333333 head_fair
 2088592601_fair 821.0 0.0333333333333 head_fair
 5089100101_fair 907.0 0.0333333333333 head_fair
 4089012701_fair 842.0 0.0333333333333 head_fair
 6089232601_fair 840.0 0.0333333333333 head_fair
 8088531401_fair 844.48 0.0333333333333 head_fair
 9089251301_fair 868.5 0.0333333333333 head_fair
 4089215401_fair 834.0 0.0333333333333 head_fair
 1040892504_fair 865.0 0.0333333333333 head_fair
 6088514101_fair 816.0 0.0333333333333 head_fair
 7089030001_fair 858.0 0.0333333333333 head_fair
 9089220001_fair 835.0 0.0333333333333 head_fair
 9089242201_fair 853.0 0.0333333333333 head_fair
 4089263801_fair 905.0 0.0333333333333 head_fair
 6089023501_fair 840.0 0.0333333333333 head_fair
 5089270501_fair 877.0 0.0333333333333 head_fair
 7089140501_fair 848.0 0.0333333333333 head_fair
 6088500601_fair 791.6 0.0333333333333 head_fair
 7089232801_fair 850.0 0.0333333333333 head_fair
 0089302201_fair 891.72 0.0333333333333 head_fair
 7089180601_fair 845.17 0.0333333333333 head_fair
 7089274701_fair 904.0 0.0333333333333 head_fair
 8089181501_fair 847.0 0.0333333333333 head_fair
 9089152601_fair 867.0 0.0333333333333 head_fair
 1089153301_fair 859.715 0.0333333333333 head_fair
 2010892126_fair 837.2 0.0333333333333 head_fair
 8089181101_fair 847.0 0.0333333333333 head_fair
 8089181201_fair 841.0 0.0333333333333 head_fair
 1089145701_fair 852.0 0.0333333333333 head_fair
 2130892952_fair 934.565 0.0333333333333 head_fair
 5089145401_fair 852.0 0.0333333333333 head_fair
 5089265001_fair 860.0 0.0333333333333 head_fair
 5089272701_fair 927.0 0.0333333333333 head_fair
 7089175301_fair 851.0 0.0333333333333 head_fair
 2180884725_fair 785.0 0.0333333333333 head_fair
 0089175301_fair 849.0 0.0333333333333 head_fair
 0089221401_fair 851.5 0.0333333333333 head_fair
 1089234801_fair 848.19 0.0333333333333 head_fair
 2089221101_fair 851.91 0.0333333333333 head_fair
 2089221501_fair 851.72 0.0333333333333 head_fair
 3088472301_fair 778.875 0.0333333333333 head_fair
 3089175301_fair 850.0 0.0333333333333 head_fair
 4089175401_fair 850.0 0.0333333333333 head_fair
 8089181001_fair 843.0 0.0333333333333 head_fair
 0089181801_fair 844.0 0.0333333333333 head_fair
 1089152701_fair 858.0 0.0333333333333 head_fair
 1089254301_fair 848.0 0.0333333333333 head_fair
 2089153401_fair 861.505 0.0333333333333 head_fair
 7089245401_fair 847.0 0.0333333333333 head_fair
 9089245301_fair 853.0 0.0333333333333 head_fair
 2400891613_fair 850.5 0.0333333333333 head_fair
 2410884810_fair 782.0 0.0333333333333 head_fair
 2089153601_fair 825.5 0.0333333333333 head_fair
 2089295701_fair 958.375 0.0333333333333 head_fair
 4089214401_fair 824.67 0.0333333333333 head_fair
 6088581901_fair 835.0 0.0333333333333 head_fair
 8088472701_fair 788.0 0.0333333333333 head_fair
 9089160401_fair 887.0 0.0333333333333 head_fair
 9089271601_fair 919.0 0.0333333333333 head_fair
 9089282002_fair 966.0 0.0333333333333 head_fair
 1089313001_fair 954.0 0.0333333333333 head_fair
 0088581301_fair 835.0 0.0333333333333 head_fair
 3089312301_fair 965.0 0.0333333333333 head_fair
 4089041301_fair 915.0 0.0333333333333 head_fair
 4089312301_fair 944.0 0.0333333333333 head_fair
 5089195501_fair 842.17 0.0333333333333 head_fair
 5089222101_fair 847.0 0.0333333333333 head_fair
 8089043501_fair 847.0 0.0333333333333 head_fair
 6089042701_fair 855.5 0.0333333333333 head_fair
 8089284101_fair 905.0 0.0333333333333 head_fair
 5089254001_fair 852.83 0.0333333333333 head_fair
 1089310601_fair 945.0 0.0333333333333 head_fair
 0089295202_fair 871.1 0.0333333333333 head_fair
 2089281401_fair 888.0 0.0333333333333 head_fair
 6089240001_fair 832.16 0.0333333333333 head_fair
 3470892020_fair 853.0 0.0333333333333 head_fair
 1088573901_fair 836.0 0.0333333333333 head_fair
 2089261301_fair 861.61 0.0333333333333 head_fair
 6089233301_fair 839.45 0.0333333333333 head_fair
 1089272801_fair 868.0 0.0333333333333 head_fair
 4089282501_fair 880.0 0.0333333333333 head_fair
 4170891855_fair 851.25 0.0333333333333 head_fair
 4089254601_fair 820.0 0.0333333333333 head_fair
 5089260901_fair 847.63 0.0333333333333 head_fair
 6089171701_fair 869.0 0.0333333333333 head_fair
 7088581301_fair 837.0 0.0333333333333 head_fair
 2089290701_fair 882.0 0.0333333333333 head_fair
 4088544201_fair 825.25 0.0333333333333 head_fair
 9088545601_fair 827.0 0.0333333333333 head_fair
 0089281001_fair 863.33 0.0333333333333 head_fair
 0089281401_fair 859.5 0.0333333333333 head_fair
 1089290701_fair 885.0 0.0333333333333 head_fair
 1089290702_fair 901.0 0.0333333333333 head_fair
 1089401701_fair 898.1 0.0333333333333 head_fair
 5089222001_fair 805.83 0.0333333333333 head_fair
 9088564801_fair 837.0 0.0333333333333 head_fair
 4490890407_fair 849.0 0.0333333333333 head_fair
 0088540301_fair 814.0 0.0333333333333 head_fair
 0089230101_fair 826.0 0.0333333333333 head_fair
 1089273901_fair 812.0 0.0333333333333 head_fair
 4089340001_fair 910.0 0.0333333333333 head_fair
 5089182201_fair 844.0 0.0333333333333 head_fair
 6089115801_fair 868.0 0.0333333333333 head_fair
 9089324401_fair 919.09 0.0333333333333 head_fair
 1089164701_fair 881.0 0.0333333333333 head_fair
 2088522601_fair 813.0 0.0333333333333 head_fair
 3089250501_fair 838.01 0.0333333333333 head_fair
 5089250501_fair 849.0 0.0333333333333 head_fair
 8088542601_fair 812.0 0.0333333333333 head_fair
 9089263001_fair 849.7 0.0333333333333 head_fair
 0089214301_fair 840.0 0.0333333333333 head_fair
 2089255801_fair 837.12 0.0333333333333 head_fair
 5270892020_fair 838.1 0.0333333333333 head_fair
 1089351401_fair 908.67 0.0333333333333 head_fair
 4089305801_fair 896.0 0.0333333333333 head_fair
 6089305201_fair 903.0 0.0333333333333 head_fair
 7089214001_fair 825.87 0.0333333333333 head_fair
 8089304701_fair 913.05 0.0333333333333 head_fair
 0089294001_fair 858.75 0.0333333333333 head_fair
 5089305001_fair 898.88 0.0333333333333 head_fair
 5089311901_fair 900.0 0.0333333333333 head_fair
 9089190001_fair 840.0 0.0333333333333 head_fair
 8089221001_fair 836.03 0.0333333333333 head_fair
 9089001801_fair 830.0 0.0333333333333 head_fair
 9089190101_fair 841.0 0.0333333333333 head_fair
 9089390101_fair 869.0 0.0333333333333 head_fair
 5089285701_fair 860.0 0.0333333333333 head_fair
 6089182701_fair 818.0 0.0333333333333 head_fair
 9089173101_fair 864.2 0.0333333333333 head_fair
 5089212401_fair 783.0 0.0333333333333 head_fair
 6260893210_fair 920.0 0.0333333333333 head_fair
 6270891855_fair 849.0 0.0333333333333 head_fair
 0089212201_fair 819.0 0.0333333333333 head_fair
 6310884634_fair 778.0 0.0333333333333 head_fair
 3089212701_fair 857.0 0.0333333333333 head_fair
 9089282501_fair 857.61 0.0333333333333 head_fair
 1089391801_fair 853.0 0.0333333333333 head_fair
 2089523501_fair 775.0 0.0333333333333 head_fair
 5089183501_fair 850.4 0.0333333333333 head_fair
 0089164501_fair 860.0 0.0333333333333 head_fair
 0089212601_fair 820.0 0.0333333333333 head_fair
 1089224201_fair 867.0 0.0333333333333 head_fair
 1089393301_fair 855.5 0.0333333333333 head_fair
 4089300501_fair 886.5 0.0333333333333 head_fair
 6560892257_fair 840.87 0.0333333333333 head_fair
 7089391701_fair 857.0 0.0333333333333 head_fair
 8089265201_fair 851.0 0.0333333333333 head_fair
 8089392001_fair 857.0 0.0333333333333 head_fair
 0089051201_fair 860.0 0.0333333333333 head_fair
 1089541201_fair 800.0 0.0333333333333 head_fair
 2088532801_fair 803.6 0.0333333333333 head_fair
 4088532301_fair 790.0 0.0333333333333 head_fair
 5089213801_fair 849.0 0.0333333333333 head_fair
 2089222301_fair 844.0 0.0333333333333 head_fair
 4089270901_fair 850.0 0.0333333333333 head_fair
 8089190701_fair 842.0 0.0333333333333 head_fair
 1089410501_fair 825.0 0.0333333333333 head_fair
 8089022901_fair 868.0 0.0333333333333 head_fair
 1089261701_fair 837.0 0.0333333333333 head_fair
 9089072101_fair 864.5 0.0333333333333 head_fair
 7410891935_fair 858.0 0.0333333333333 head_fair
 5089425301_fair 820.66 0.0333333333333 head_fair
 7088504501_fair 793.0 0.0333333333333 head_fair
 7089225101_fair 849.12 0.0333333333333 head_fair
 1089230101_fair 856.0 0.0333333333333 head_fair
 6089071901_fair 868.75 0.0333333333333 head_fair
 8089183101_fair 862.5 0.0333333333333 head_fair
 8089242901_fair 849.0 0.0333333333333 head_fair
 7590892223_fair 845.0 0.0333333333333 head_fair
 2089235001_fair 852.96 0.0333333333333 head_fair
 7089171701_fair 845.0 0.0333333333333 head_fair
 7089255401_fair 858.0 0.0333333333333 head_fair
 4089445001_fair 808.89 0.0333333333333 head_fair
 8210891935_fair 851.5 0.0333333333333 head_fair
 1089481901_fair 801.0 0.0333333333333 head_fair
 5089204601_fair 818.0 0.0333333333333 head_fair
 2089234101_fair 853.45 0.0333333333333 head_fair
 0088575601_fair 837.0 0.0333333333333 head_fair
 2088560501_fair 785.0 0.0333333333333 head_fair
 4089223102_fair 852.75 0.0333333333333 head_fair
 8480892143_fair 854.0 0.0333333333333 head_fair
 4089095201_fair 894.0 0.0333333333333 head_fair
 4089215501_fair 858.0 0.0333333333333 head_fair
 9089313401_fair 935.0 0.0333333333333 head_fair
 8089251801_fair 861.0 0.0333333333333 head_fair
 6089461001_fair 785.0 0.0333333333333 head_fair
 0089015001_fair 842.0 0.0333333333333 head_fair
 1089254001_fair 850.0 0.0333333333333 head_fair
 4088542001_fair 750.0 0.0333333333333 head_fair
 4089231501_fair 860.0 0.0333333333333 head_fair
 8089011501_fair 834.8 0.0333333333333 head_fair
 0089040601_fair 837.0 0.0333333333333 head_fair
 4089033701_fair 842.0 0.0333333333333 head_fair
 9089352101_fair 934.98 0.0333333333333 head_fair
 6089473001_fair 793.0 0.0333333333333 head_fair
 4089502001_fair 737.0 0.0333333333333 head_fair
 0089474001_fair 751.0 0.0333333333333 head_fair
 6088475301_fair 804.0 0.0333333333333 head_fair
 7089494001_fair 748.0 0.0333333333333 head_fair
 5089151601_fair 886.0 0.0333333333333 head_fair
 1089352101_fair 927.0 0.0333333333333 head_fair
 1089481401_fair 750.96 0.0333333333333 head_fair
 2089002001_fair 821.0 0.0333333333333 head_fair
 0520890023_fair 822.0 0.0333333333333 head_fair
 3089123901_fair 893.0 0.0333333333333 head_fair
 3089352801_fair 938.0 0.0333333333333 head_fair
 8089244901_fair 877.0 0.0333333333333 head_fair
 0089012801_fair 826.0 0.0333333333333 head_fair
 7089124401_fair 904.0 0.0333333333333 head_fair
 1089480401_fair 709.0 0.0333333333333 head_fair
 3088590801_fair 808.0 0.0333333333333 head_fair
 3089091601_fair 876.0 0.0333333333333 head_fair
 4088592201_fair 809.0 0.0333333333333 head_fair
 4088594201_fair 812.0 0.0333333333333 head_fair
 0089265201_fair 903.7 0.0333333333333 head_fair
 3089492801_fair 737.0 0.0333333333333 head_fair
 6089133001_fair 921.0 0.0333333333333 head_fair
 7089133001_fair 901.0 0.0333333333333 head_fair
 4088503401_fair 800.0 0.0333333333333 head_fair
 5088492101_fair 796.0 0.0333333333333 head_fair
 5088533101_fair 786.0 0.0333333333333 head_fair
 7089502601_fair 723.0 0.0333333333333 head_fair
 4088582601_fair 794.0 0.0333333333333 head_fair
 1088514301_fair 790.0 0.0333333333333 head_fair
 1089474101_fair 735.0 0.0333333333333 head_fair
 4088544601_fair 787.0 0.0333333333333 head_fair
 5088542601_fair 795.0 0.0333333333333 head_fair
 0088563401_fair 838.0 0.0333333333333 head_fair
 4089085001_fair 874.0 0.0333333333333 head_fair
 6089470201_fair 736.0 0.0333333333333 head_fair
 1088551301_fair 812.0 0.0333333333333 head_fair
 3088555101_fair 856.0 0.0333333333333 head_fair
 7088592201_fair 832.0 0.0333333333333 head_fair
 9088590701_fair 837.0 0.0333333333333 head_fair
 6088521401_fair 765.0 0.0333333333333 head_fair
 6088592701_fair 810.0 0.0333333333333 head_fair
 7089105301_fair 911.0 0.0333333333333 head_fair
 7089201401_fair 903.0 0.0333333333333 head_fair
 1089053201_fair 863.0 0.0333333333333 head_fair
 8088575301_fair 797.0 0.0333333333333 head_fair
 3090890035_fair 858.0 0.0333333333333 head_fair
 1088471001_fair 840.0 0.0333333333333 head_fair
 2088544701_fair 798.0 0.0333333333333 head_fair
 3150885529_fair 812.0 0.0333333333333 head_fair
 6088475101_fair 815.0 0.0333333333333 head_fair
 3160892257_fair 914.44 0.0333333333333 head_fair
 6088463801_fair 813.0 0.0333333333333 head_fair
 7089113001_fair 917.0 0.0333333333333 head_fair
 3310892126_fair 894.0 0.0333333333333 head_fair
 2088463301_fair 845.0 0.0333333333333 head_fair
 5089183001_fair 975.0 0.0333333333333 head_fair
 6088572801_fair 791.0 0.0333333333333 head_fair
 7088503401_fair 796.0 0.0333333333333 head_fair
 9088503401_fair 801.0 0.0333333333333 head_fair
 3088531801_fair 792.0 0.0333333333333 head_fair
 4120890023_fair 845.0 0.0333333333333 head_fair
 4088543301_fair 787.0 0.0333333333333 head_fair
 7088530901_fair 749.0 0.0333333333333 head_fair
 2088470701_fair 825.0 0.0333333333333 head_fair
 4088474201_fair 816.0 0.0333333333333 head_fair
 0088464601_fair 822.0 0.0333333333333 head_fair
 8088565001_fair 790.0 0.0333333333333 head_fair
 0088473701_fair 822.0 0.0333333333333 head_fair
 5088545801_fair 806.0 0.0333333333333 head_fair
 7088484101_fair 801.0 0.0333333333333 head_fair
 7088580801_fair 815.0 0.0333333333333 head_fair
 0089202101_fair 926.0 0.0333333333333 head_fair
 8089120501_fair 905.0 0.0333333333333 head_fair
 1089300101_fair 914.0 0.0333333333333 head_fair
 2089200501_fair 922.0 0.0333333333333 head_fair
 0089014501_fair 880.0 0.0333333333333 head_fair
 1089135201_fair 923.0 0.0333333333333 head_fair
 5089230901_fair 945.0 0.0333333333333 head_fair
 8089193301_fair 902.0 0.0333333333333 head_fair
 9088522301_fair 810.0 0.0333333333333 head_fair
 2088541101_fair 814.0 0.0333333333333 head_fair
 5088532501_fair 797.0 0.0333333333333 head_fair
 5089075501_fair 901.0 0.0333333333333 head_fair
 8089070201_fair 906.0 0.0333333333333 head_fair
 2088591301_fair 806.0 0.0333333333333 head_fair
 6089200401_fair 931.0 0.0333333333333 head_fair
 6089202101_fair 926.5 0.0333333333333 head_fair
 8088550001_fair 837.0 0.0333333333333 head_fair
 0088575801_fair 813.0 0.0333333333333 head_fair
 3088553801_fair 809.0 0.0333333333333 head_fair
 5089461701_fair 733.0 0.0333333333333 head_fair
 8088475801_fair 793.0 0.0333333333333 head_fair
 8088560601_fair 798.0 0.0333333333333 head_fair
 0089434101_fair 806.0 0.0333333333333 head_fair
 3088500201_fair 797.0 0.0333333333333 head_fair
 3089081301_fair 919.0 0.0333333333333 head_fair
 6040890904_fair 919.0 0.0333333333333 head_fair
 2089445301_fair 739.0 0.0333333333333 head_fair
 4088555501_fair 810.0 0.0333333333333 head_fair
 9089210101_fair 940.0 0.0333333333333 head_fair
 6089433201_fair 730.0 0.0333333333333 head_fair
 3088542001_fair 835.0 0.0333333333333 head_fair
 9088502901_fair 782.0 0.0333333333333 head_fair
 0088503201_fair 805.0 0.0333333333333 head_fair
 4089455101_fair 675.0 0.0333333333333 head_fair
 6088522101_fair 845.0 0.0333333333333 head_fair
 8089193601_fair 939.37 0.0333333333333 head_fair
 3089431801_fair 730.0 0.0333333333333 head_fair
 7089024201_fair 784.0 0.0333333333333 head_fair
 8088524801_fair 834.0 0.0333333333333 head_fair
 7088510901_fair 845.0 0.0333333333333 head_fair
 7089033901_fair 892.0 0.0333333333333 head_fair
 8089013801_fair 867.0 0.0333333333333 head_fair
 2088504201_fair 797.0 0.0333333333333 head_fair
 2088513701_fair 860.0 0.0333333333333 head_fair
 6089375701_fair 855.0 0.0333333333333 head_fair
 8089212401_fair 949.0 0.0333333333333 head_fair
 8089365901_fair 849.82 0.0333333333333 head_fair
 9089424401_fair 732.0 0.0333333333333 head_fair
 1088465801_fair 805.0 0.0333333333333 head_fair
 2089122401_fair 922.0 0.0333333333333 head_fair
 6089192301_fair 932.0 0.0333333333333 head_fair
 7089434801_fair 742.0 0.0333333333333 head_fair
 9089064401_fair 915.0 0.0333333333333 head_fair
 9089345301_fair 840.0 0.0333333333333 head_fair
 2089433701_fair 728.0 0.0333333333333 head_fair
 7550892257_fair 950.0 0.0333333333333 head_fair
 6089163801_fair 938.0 0.0333333333333 head_fair
 6089472301_fair 694.0 0.0333333333333 head_fair
 7089045101_fair 910.0 0.0333333333333 head_fair
 9089312101_fair 875.0 0.0333333333333 head_fair
 0088484701_fair 805.0 0.0333333333333 head_fair
 0089171301_fair 990.0 0.0333333333333 head_fair
 2089275001_fair 915.0 0.0333333333333 head_fair
 4088591401_fair 813.0 0.0333333333333 head_fair
 4089193201_fair 947.13 0.0333333333333 head_fair
 2088590801_fair 801.0 0.0333333333333 head_fair
 4089072801_fair 907.0 0.0333333333333 head_fair
 6089204901_fair 945.0 0.0333333333333 head_fair
 0089261901_fair 935.0 0.0333333333333 head_fair
 5089151201_fair 931.0 0.0333333333333 head_fair
 6089384601_fair 828.0 0.0333333333333 head_fair
 7089402101_fair 870.0 0.0333333333333 head_fair
 8089292001_fair 878.0 0.0333333333333 head_fair
 9088564601_fair 798.0 0.0333333333333 head_fair
 9089320201_fair 830.0 0.0333333333333 head_fair
 9089380401_fair 825.0 0.0333333333333 head_fair
 2089292701_fair 860.0 0.0333333333333 head_fair
 2089391701_fair 827.0 0.0333333333333 head_fair
 3089241301_fair 938.0 0.0333333333333 head_fair
 8330892952_fair 866.0 0.0333333333333 head_fair
 8089180201_fair 945.0 0.0333333333333 head_fair
 1089094801_fair 920.0 0.0333333333333 head_fair
 7089310601_fair 785.0 0.0333333333333 head_fair
 9089073901_fair 953.0 0.0333333333333 head_fair
 9089311002_fair 825.0 0.0333333333333 head_fair
 0088473101_fair 788.0 0.0333333333333 head_fair
 1089082501_fair 950.0 0.0333333333333 head_fair
 3088473301_fair 784.0 0.0333333333333 head_fair
 3089415801_fair 780.0 0.0333333333333 head_fair
 4089030001_fair 821.0 0.0333333333333 head_fair
 7089425501_fair 745.0 0.0333333333333 head_fair
 6089120601_fair 920.0 0.0333333333333 head_fair
 1088581401_fair 816.0 0.0333333333333 head_fair
 7088473801_fair 784.0 0.0333333333333 head_fair
 8088484501_fair 793.0 0.0333333333333 head_fair
 9089121001_fair 920.0 0.0333333333333 head_fair
 1088555501_fair 763.0 0.0333333333333 head_fair
 1089305601_fair 815.0 0.0333333333333 head_fair
 4089202501_fair 943.0 0.0333333333333 head_fair
 5088470301_fair 773.0 0.0333333333333 head_fair
 5089002701_fair 824.0 0.0333333333333 head_fair
 7088495501_fair 795.0 0.0333333333333 head_fair
 7089193501_fair 972.0 0.0333333333333 head_fair
 7089235101_fair 936.0 0.0333333333333 head_fair
 9089101301_fair 913.0 0.0333333333333 head_fair
 9089120101_fair 924.0 0.0333333333333 head_fair
 1089194101_fair 966.0 0.0333333333333 head_fair
 2088495201_fair 790.0 0.0333333333333 head_fair
 2088583801_fair 820.0 0.0333333333333 head_fair
 2089193601_fair 984.0 0.0333333333333 head_fair
 3088593201_fair 823.0 0.0333333333333 head_fair
 6089075001_fair 918.0 0.0333333333333 head_fair
 7088495001_fair 820.0 0.0333333333333 head_fair
 8088570901_fair 826.0 0.0333333333333 head_fair
 8089102401_fair 909.0 0.0333333333333 head_fair
 9089462201_fair 767.59 0.0333333333333 head_fair
 1088572101_fair 820.0 0.0333333333333 head_fair
 1089342401_fair 785.0 0.0333333333333 head_fair
 2088521401_fair 825.0 0.0333333333333 head_fair
 9440885032_fair 817.0 0.0333333333333 head_fair
 4089382301_fair 805.0 0.0333333333333 head_fair
 7088482101_fair 803.0 0.0333333333333 head_fair
 7088494801_fair 795.0 0.0333333333333 head_fair
 0089303701_fair 837.0 0.0333333333333 head_fair
 2089304701_fair 833.0 0.0333333333333 head_fair
 3088564501_fair 816.0 0.0333333333333 head_fair
 3089182601_fair 952.0 0.0333333333333 head_fair
 6089182901_fair 965.0 0.0333333333333 head_fair
 6089430801_fair 742.249 0.0333333333333 head_fair
 0088563601_fair 796.932 0.0333333333333 head_fair
 0000891613_fair 985.0 0.0333333333333 head_fair
 0089272701_fair 885.0 0.0333333333333 head_fair
 0089274301_fair 870.0 0.0333333333333 head_fair
 0089400001_fair 750.0 0.0333333333333 head_fair
 0089450001_fair 795.89 0.0333333333333 head_fair
 4089140301_fair 953.92 0.0333333333333 head_fair
 5089222201_fair 935.0 0.0333333333333 head_fair
 5089223301_fair 946.0 0.0333333333333 head_fair
 6088533501_fair 808.0 0.0333333333333 head_fair
 7089001501_fair 822.0 0.0333333333333 head_fair
 9089330401_fair 810.0 0.0333333333333 head_fair
 0088491001_fair 814.0 0.0333333333333 head_fair
 0089155101_fair 991.2 0.0333333333333 head_fair
 8089244601_fair 895.0 0.0333333333333 head_fair
 0089004401_fair 841.0 0.0333333333333 head_fair
 1089224701_fair 938.0 0.0333333333333 head_fair
 3088500601_fair 807.0 0.0333333333333 head_fair
 6089363601_fair 805.0 0.0333333333333 head_fair
 7088572001_fair 805.0 0.0333333333333 head_fair
 2088551501_fair 825.0 0.0333333333333 head_fair
 5088542301_fair 814.0 0.0333333333333 head_fair
 7088564801_fair 833.0 0.0333333333333 head_fair
 0089285601_fair 875.0 0.0333333333333 head_fair
 3089460301_fair 769.411 0.0333333333333 head_fair
 4089252301_fair 885.517 0.0333333333333 head_fair
 6088594401_fair 828.0 0.0333333333333 head_fair
 9089000201_fair 829.0 0.0333333333333 head_fair
 0088572501_fair 827.0 0.0333333333333 head_fair
 1089155001_fair 975.0 0.0333333333333 head_fair
 2088500501_fair 808.0 0.0333333333333 head_fair
 2088544001_fair 831.0 0.0333333333333 head_fair
 2089285101_fair 860.0 0.0333333333333 head_fair
 3088561601_fair 821.0 0.0333333333333 head_fair
 7089314901_fair 805.0 0.0333333333333 head_fair
 8089381201_fair 760.0 0.0333333333333 head_fair
 0088505101_fair 750.0 0.0333333333333 head_fair
 1089362701_fair 695.0 0.0333333333333 head_fair
 4088475301_fair 808.0 0.0333333333333 head_fair
 4089264301_fair 935.0 0.0333333333333 head_fair
 5089385101_fair 760.0 0.0333333333333 head_fair
 8088594901_fair 815.0 0.0333333333333 head_fair
 1089270801_fair 882.0 0.0333333333333 head_fair
 2089340201_fair 788.0 0.0333333333333 head_fair
 3088490801_fair 806.0 0.0333333333333 head_fair
 4089095301_fair 904.0 0.0333333333333 head_fair
 4089095401_fair 940.0 0.0333333333333 head_fair
 5088505001_fair 816.0 0.0333333333333 head_fair
 9088562901_fair 847.0 0.0333333333333 head_fair
 9089373501_fair 784.0 0.0333333333333 head_fair
 1089394601_fair 760.0 0.0333333333333 head_fair
 7089402201_fair 770.0 0.0333333333333 head_fair
 0088522201_fair 827.0 0.0333333333333 head_fair
 0089344201_fair 773.0 0.0333333333333 head_fair
 1320893440_fair 776.0 0.0333333333333 head_fair
 4089331701_fair 785.0 0.0333333333333 head_fair
 7089351101_fair 774.0 0.0333333333333 head_fair
 4089155801_fair 954.0 0.0333333333333 head_fair
 4089230601_fair 879.0 0.0333333333333 head_fair
 5089342401_fair 772.0 0.0333333333333 head_fair
 1490890035_fair 838.0 0.0333333333333 head_fair
 2089024501_fair 856.0 0.0333333333333 head_fair
 4088530201_fair 838.0 0.0333333333333 head_fair
 4088581401_fair 880.0 0.0333333333333 head_fair
 4089085101_fair 916.0 0.0333333333333 head_fair
 4089274901_fair 845.0 0.0333333333333 head_fair
 5089241001_fair 890.0 0.0333333333333 head_fair
 8088581401_fair 867.0 0.0333333333333 head_fair
 8089275401_fair 855.0 0.0333333333333 head_fair
 0089250001_fair 860.0 0.0333333333333 head_fair
 1089263301_fair 895.0 0.0333333333333 head_fair
 4089342801_fair 766.0 0.0333333333333 head_fair
 5089143801_fair 946.0 0.0333333333333 head_fair
 7088474501_fair 808.0 0.0333333333333 head_fair
 7089303501_fair 772.0 0.0333333333333 head_fair
 7089314501_fair 780.0 0.0333333333333 head_fair