pcf
* control data
 restart regularisation
    360     218     10    2784      14
     10          2          single     point     1          0     0
     10.          2.          0.3          3.0E-02     10
     5.          5.          1.0E-03
     0.1          noaui
        -1              1.0E-03     4          4          1.0E-03     4
     0          0          0
* singular value decomposition
1
360  5.0000000E-07
0   
* parameter groups
     KhSurf               relative     0.01          0.00          switch          2.0     outside_pts
     KhQuat               relative     0.01          0.00          switch          2.0     outside_pts
     KvSurf               relative     0.01          0.00          switch          2.0     outside_pts
     KvQuat               relative     0.01          0.00          switch          2.0     outside_pts
     SySurf               relative     0.01          0.00          switch          2.0     outside_pts
     SSQuat               relative     0.01          0.00          switch          2.0     outside_pts
     SpecQ                relative     0.01          0.00          switch          2.0     outside_pts
     Por                    relative     0.05          0.00          switch          2.0     outside_pts
     Por2               relative     0.05          0.00          switch          2.0     outside_pts
     MassR8               relative     0.50          0.00          switch          2.0     outside_pts
* parameter data
     HK1      log     factor     1.00E+00     0.01          100     KhSurf     1.0 0.0 1
     HK2           log    factor     1.00E+00     0.01          100     KhSurf     1.0 0.0 1
     HK3           log    factor     1.00E+00     0.01          100     KhQuat     1.0 0.0 1
     HK4           log    factor     1.00E+00     0.01          100     KhQuat     1.0 0.0 1
     HK5           log    factor     1.00E+00     0.01          100     KhQuat     1.0 0.0 1
     HK6           log    factor     1.00E+00     0.01          100     KhQuat     1.0 0.0 1
     HK7           log    factor     1.00E+00     0.01          100     KhQuat     1.0 0.0 1
     VK1           log    factor     1.00E+00     0.01          100     KvSurf     1.0 0.0 1
     VK2           log    factor     1.00E+00     0.01          100     KvSurf     1.0 0.0 1
     VKZ1      log    factor     1.00E+00     0.01          100     KvQuat     1.0 0.0 1
     VKZ2      log    factor     1.00E+00     0.01          100     KvQuat     1.0 0.0 1
     VKZ3      log    factor     1.00E+00     0.01          100     KvQuat     1.0 0.0 1
     VKZ4      log    factor     1.00E+00     0.01          100     KvQuat     1.0 0.0 1
     SY1           log    factor     1.00E+00     0.01          100     SySurf     1.0 0.0 1
     SY2           log    factor     1.00E+00     0.01          100     SySurf     1.0 0.0 1
     SY3           log    factor     1.00E+00     0.01          100     SySurf     1.0 0.0 1
     SS1           log    factor     1.00E+00     0.01          100     SSQuat     1.0 0.0 1
     SS2           log    factor     1.00E+00     0.01          100     SSQuat     1.0 0.0 1
     SS3           log    factor     1.00E+00     0.01          100     SSQuat     1.0 0.0 1
     SS4           log    factor     1.00E+00     0.01          100     SSQuat     1.0 0.0 1
     SS5           log    factor     1.00E+00     0.01          100     SSQuat     1.0 0.0 1
     SS6           log    factor     1.00E+00     0.01          100     SSQuat     1.0 0.0 1
     SS7           log    factor     1.00E+00     0.01          100     SSQuat     1.0 0.0 1
     QMBR      none   factor     5.00E-01     0.1               10      SpecQ     1.0 0.0 1
     QCanal      none   factor     1.00E+00     0.1               10      SpecQ     1.0 0.0 1
     QSpring      none   factor     1.00E+00     0.1               10      SpecQ     1.0 0.0 1
     QDom      none   factor     1.00E+00     0.1               10      SpecQ     1.0 0.0 1
     SPpp1    none   factor     3.00E-01     0.001          0.5     Por          1.0 0.0 1
     SPpp2    none   factor  3.00E-01    0.001       0.5 Por     1.0 0.0 1
     SPpp3    none   factor  3.00E-01    0.001       0.5 Por     1.0 0.0 1
     SPpp4    none   factor  3.00E-01    0.001       0.5 Por     1.0 0.0 1
     SPpp5    none   factor  3.00E-01    0.001       0.5 Por     1.0 0.0 1
     SPpp6    none   factor  3.00E-01    0.001       0.5 Por     1.0 0.0 1
     SPpp7    none   factor  3.00E-01    0.001       0.5 Por     1.0 0.0 1
     SPpp8    none   factor  3.00E-01    0.001       0.5 Por     1.0 0.0 1
     SPpp9    none   factor  3.00E-01    0.001       0.5 Por     1.0 0.0 1
     SPpp10   none   factor  3.00E-01    0.001       0.5 Por     1.0 0.0 1
     SPpp11   none   factor  3.00E-01    0.001       0.5 Por     1.0 0.0 1
     SPpp12   none   factor  3.00E-01    0.001       0.5 Por     1.0 0.0 1
     SPpp13   none   factor  3.00E-01    0.001       0.5 Por     1.0 0.0 1
     SPpp14   none   factor  3.00E-01    0.001       0.5 Por     1.0 0.0 1
     SPpp15   none   factor  3.00E-01    0.001       0.5 Por     1.0 0.0 1
     SPpp16   none   factor  3.00E-01    0.001       0.5 Por     1.0 0.0 1
     SPpp17   none   factor  3.00E-01    0.001       0.5 Por     1.0 0.0 1
     SPpp18   none   factor  3.00E-01    0.001       0.5 Por     1.0 0.0 1
     SPpp19   none   factor  3.00E-01    0.001       0.5 Por     1.0 0.0 1
     SPpp20   none   factor  3.00E-01    0.001       0.5 Por     1.0 0.0 1
     SPpp21   none   factor  3.00E-01    0.001       0.5 Por     1.0 0.0 1
     SPpp22   none   factor  3.00E-01    0.001       0.5 Por     1.0 0.0 1
     SPpp23   none   factor  3.00E-01    0.001       0.5 Por     1.0 0.0 1
     SPpp24   none   factor  3.00E-01    0.001       0.5 Por     1.0 0.0 1
     SPpp25   none   factor  3.00E-01    0.001       0.5 Por     1.0 0.0 1
     SPpp26   none   factor  3.00E-01    0.001       0.5 Por     1.0 0.0 1
     SPpp27   none   factor  3.00E-01    0.001       0.5 Por     1.0 0.0 1
     SPpp28   none   factor  3.00E-01    0.001       0.5 Por     1.0 0.0 1
     SPpp29   none   factor  3.00E-01    0.001       0.5 Por     1.0 0.0 1
     SPpp30   none   factor  3.00E-01    0.001       0.5 Por     1.0 0.0 1
     SPpp31   none   factor  3.00E-01    0.001       0.5 Por     1.0 0.0 1
     SPpp32   none   factor  3.00E-01    0.001       0.5 Por     1.0 0.0 1
     SPpp33   none   factor  3.00E-01    0.001       0.5 Por     1.0 0.0 1
     SPpp34   none   factor  3.00E-01    0.001       0.5 Por     1.0 0.0 1
     SPpp35   none   factor  3.00E-01    0.001       0.5 Por     1.0 0.0 1
     SPpp36   none   factor  3.00E-01    0.001       0.5 Por     1.0 0.0 1
     SPpp37   none   factor  3.00E-01    0.001       0.5 Por     1.0 0.0 1
     MPpp1    none   factor  2.00E-01    0.001       0.5 Por     1.0 0.0 1
     MPpp2    none   factor  2.00E-01    0.001       0.5 Por     1.0 0.0 1
     MPpp3    none   factor  2.00E-01    0.001       0.5 Por     1.0 0.0 1
     MPpp4    none   factor  2.00E-01    0.001       0.5 Por     1.0 0.0 1
     MPpp5    none   factor  2.00E-01    0.001       0.5 Por     1.0 0.0 1
     MPpp6    none   factor  2.00E-01    0.001       0.5 Por     1.0 0.0 1
     MPpp7    none   factor  2.00E-01    0.001       0.5 Por     1.0 0.0 1
     MPpp8    none   factor  2.00E-01    0.001       0.5 Por     1.0 0.0 1
     MPpp9    none   factor  2.00E-01    0.001       0.5 Por     1.0 0.0 1
     MPpp10   none   factor  2.00E-01    0.001       0.5 Por     1.0 0.0 1
     MPpp11   none   factor  2.00E-01    0.001       0.5 Por     1.0 0.0 1
     MPpp12   none   factor  2.00E-01    0.001       0.5 Por     1.0 0.0 1
     MPpp13   none   factor  2.00E-01    0.001       0.5 Por     1.0 0.0 1
     MPpp14   none   factor  2.00E-01    0.001       0.5 Por     1.0 0.0 1
     MPpp15   none   factor  2.00E-01    0.001       0.5 Por     1.0 0.0 1
     MPpp16   none   factor  2.00E-01    0.001       0.5 Por     1.0 0.0 1
     MPpp17   none   factor  2.00E-01    0.001       0.5 Por     1.0 0.0 1
     MPpp18   none   factor  2.00E-01    0.001       0.5 Por     1.0 0.0 1
     MPpp19   none   factor  2.00E-01    0.001       0.5 Por     1.0 0.0 1
     MPpp20   none   factor  2.00E-01    0.001       0.5 Por     1.0 0.0 1
     MPpp21   none   factor  2.00E-01    0.001       0.5 Por     1.0 0.0 1
     MPpp22   none   factor  2.00E-01    0.001       0.5 Por     1.0 0.0 1
     MPpp23   none   factor  2.00E-01    0.001       0.5 Por     1.0 0.0 1
     MPpp24   none   factor  2.00E-01    0.001       0.5 Por     1.0 0.0 1
     MPpp25   none   factor  2.00E-01    0.001       0.5 Por     1.0 0.0 1
     MPpp26   none   factor  2.00E-01    0.001       0.5 Por     1.0 0.0 1
     MPpp27   none   factor  2.00E-01    0.001       0.5 Por     1.0 0.0 1
     MPpp28   none   factor  2.00E-01    0.001       0.5 Por     1.0 0.0 1
     MPpp29   none   factor  2.00E-01    0.001       0.5 Por     1.0 0.0 1
     MPpp30   none   factor  2.00E-01    0.001       0.5 Por     1.0 0.0 1
     MPpp31   none   factor  2.00E-01    0.001       0.5 Por     1.0 0.0 1
     MPpp32   none   factor  2.00E-01    0.001       0.5 Por     1.0 0.0 1
     MPpp33   none   factor  2.00E-01    0.001       0.5 Por     1.0 0.0 1
     MPpp34   none   factor  2.00E-01    0.001       0.5 Por     1.0 0.0 1
     MPpp35   none   factor  2.00E-01    0.001       0.5 Por     1.0 0.0 1
     MPpp36   none   factor  2.00E-01    0.001       0.5 Por     1.0 0.0 1
     MPpp37   none   factor  2.00E-01    0.001       0.5 Por     1.0 0.0 1
     DPpp1    none   factor  2.00E-01    0.001       0.5 Por     1.0 0.0 1
     DPpp2    none   factor  2.00E-01    0.001       0.5 Por     1.0 0.0 1
     DPpp3    none   factor  2.00E-01    0.001       0.5 Por     1.0 0.0 1
     DPpp4    none   factor  2.00E-01    0.001       0.5 Por     1.0 0.0 1
     DPpp5    none   factor  2.00E-01    0.001       0.5 Por     1.0 0.0 1
     DPpp6    none   factor  2.00E-01    0.001       0.5 Por     1.0 0.0 1
     DPpp7    none   factor  2.00E-01    0.001       0.5 Por     1.0 0.0 1
     DPpp8    none   factor  2.00E-01    0.001       0.5 Por     1.0 0.0 1
     DPpp9    none   factor  2.00E-01    0.001       0.5 Por     1.0 0.0 1
     DPpp10   none   factor  2.00E-01    0.001       0.5 Por     1.0 0.0 1
     DPpp11   none   factor  2.00E-01    0.001       0.5 Por     1.0 0.0 1
     DPpp12   none   factor  2.00E-01    0.001       0.5 Por     1.0 0.0 1
     DPpp13   none   factor  2.00E-01    0.001       0.5 Por     1.0 0.0 1
     DPpp14   none   factor  2.00E-01    0.001       0.5 Por     1.0 0.0 1
     DPpp15   none   factor  2.00E-01    0.001       0.5 Por     1.0 0.0 1
     DPpp16   none   factor  2.00E-01    0.001       0.5 Por     1.0 0.0 1
     DPpp17   none   factor  2.00E-01    0.001       0.5 Por     1.0 0.0 1
     DPpp18   none   factor  2.00E-01    0.001       0.5 Por     1.0 0.0 1
     DPpp19   none   factor  2.00E-01    0.001       0.5 Por     1.0 0.0 1
     DPpp20   none   factor  2.00E-01    0.001       0.5 Por     1.0 0.0 1
     DPpp21   none   factor  2.00E-01    0.001       0.5 Por     1.0 0.0 1
     DPpp22   none   factor  2.00E-01    0.001       0.5 Por     1.0 0.0 1
     DPpp23   none   factor  2.00E-01    0.001       0.5 Por     1.0 0.0 1
     DPpp24   none   factor  2.00E-01    0.001       0.5 Por     1.0 0.0 1
     DPpp25   none   factor  2.00E-01    0.001       0.5 Por     1.0 0.0 1
     DPpp26   none   factor  2.00E-01    0.001       0.5 Por     1.0 0.0 1
     DPpp27   none   factor  2.00E-01    0.001       0.5 Por     1.0 0.0 1
     DPpp28   none   factor  2.00E-01    0.001       0.5 Por     1.0 0.0 1
     DPpp29   none   factor  2.00E-01    0.001       0.5 Por     1.0 0.0 1
     DPpp30   none   factor  2.00E-01    0.001       0.5 Por     1.0 0.0 1
     DPpp31   none   factor  2.00E-01    0.001       0.5 Por     1.0 0.0 1
     DPpp32   none   factor  2.00E-01    0.001       0.5 Por     1.0 0.0 1
     DPpp33   none   factor  2.00E-01    0.001       0.5 Por     1.0 0.0 1
     DPpp34   none   factor  2.00E-01    0.001       0.5 Por     1.0 0.0 1
     DPpp35   none   factor  2.00E-01    0.001       0.5 Por     1.0 0.0 1
     DPpp36   none   factor  2.00E-01    0.001       0.5 Por     1.0 0.0 1
     DPpp37   none   factor  2.00E-01    0.001       0.5 Por     1.0 0.0 1
     SIpp1   none   factor     1.00E-01     0.0001          0.5 Por2      1.0 0.0 1
     SIpp2   none   factor  1.00E-01    0.0001       0.5 Por2     1.0 0.0 1
     SIpp3   none   factor  1.00E-01    0.0001       0.5 Por2     1.0 0.0 1
     SIpp4   none   factor  1.00E-01    0.0001       0.5 Por2     1.0 0.0 1
     SIpp5   none   factor  1.00E-01    0.0001       0.5 Por2     1.0 0.0 1
     SIpp6   none   factor  1.00E-01    0.0001       0.5 Por2     1.0 0.0 1
     SIpp7   none   factor  1.00E-01    0.0001       0.5 Por2     1.0 0.0 1
     SIpp8   none   factor  1.00E-01    0.0001       0.5 Por2     1.0 0.0 1
     SIpp9   none   factor  1.00E-01    0.0001       0.5 Por2     1.0 0.0 1
     SIpp10  none   factor  1.00E-01    0.0001       0.5 Por2     1.0 0.0 1
     SIpp11  none   factor  1.00E-01    0.0001       0.5 Por2     1.0 0.0 1
     SIpp12  none   factor  1.00E-01    0.0001       0.5 Por2     1.0 0.0 1
     SIpp13  none   factor  1.00E-01    0.0001       0.5 Por2     1.0 0.0 1
     SIpp14  none   factor  1.00E-01    0.0001       0.5 Por2     1.0 0.0 1
     SIpp15  none   factor  1.00E-01    0.0001       0.5 Por2     1.0 0.0 1
     SIpp16  none   factor  1.00E-01    0.0001       0.5 Por2     1.0 0.0 1
     SIpp17  none   factor  1.00E-01    0.0001       0.5 Por2     1.0 0.0 1
     SIpp18  none   factor  1.00E-01    0.0001       0.5 Por2     1.0 0.0 1
     SIpp19  none   factor  1.00E-01    0.0001       0.5 Por2     1.0 0.0 1
     SIpp20  none   factor  1.00E-01    0.0001       0.5 Por2     1.0 0.0 1
     SIpp21  none   factor  1.00E-01    0.0001       0.5 Por2     1.0 0.0 1
     SIpp22  none   factor  1.00E-01    0.0001       0.5 Por2     1.0 0.0 1
     SIpp23  none   factor  1.00E-01    0.0001       0.5 Por2     1.0 0.0 1
     SIpp24  none   factor  1.00E-01    0.0001       0.5 Por2     1.0 0.0 1
     SIpp25  none   factor  1.00E-01    0.0001       0.5 Por2     1.0 0.0 1
     SIpp26  none   factor  1.00E-01    0.0001       0.5 Por2     1.0 0.0 1
     SIpp27  none   factor  1.00E-01    0.0001       0.5 Por2     1.0 0.0 1
     SIpp28  none   factor  1.00E-01    0.0001       0.5 Por2     1.0 0.0 1
     SIpp29  none   factor  1.00E-01    0.0001       0.5 Por2     1.0 0.0 1
     SIpp30  none   factor  1.00E-01    0.0001       0.5 Por2     1.0 0.0 1
     SIpp31  none   factor  1.00E-01    0.0001       0.5 Por2     1.0 0.0 1
     SIpp32  none   factor  1.00E-01    0.0001       0.5 Por2     1.0 0.0 1
     SIpp33  none   factor  1.00E-01    0.0001       0.5 Por2     1.0 0.0 1
     SIpp34  none   factor  1.00E-01    0.0001       0.5 Por2     1.0 0.0 1
     SIpp35  none   factor  1.00E-01    0.0001       0.5 Por2     1.0 0.0 1
     SIpp36  none   factor  1.00E-01    0.0001       0.5 Por2     1.0 0.0 1
     SIpp37  none   factor  1.00E-01    0.0001       0.5 Por2     1.0 0.0 1
     MIpp1   none   factor  1.00E-01    0.0001       0.5 Por2     1.0 0.0 1
     MIpp2   none   factor  1.00E-01    0.0001       0.5 Por2     1.0 0.0 1
     MIpp3   none   factor  1.00E-01    0.0001       0.5 Por2     1.0 0.0 1
     MIpp4   none   factor  1.00E-01    0.0001       0.5 Por2     1.0 0.0 1
     MIpp5   none   factor  1.00E-01    0.0001       0.5 Por2     1.0 0.0 1
     MIpp6   none   factor  1.00E-01    0.0001       0.5 Por2     1.0 0.0 1
     MIpp7   none   factor  1.00E-01    0.0001       0.5 Por2     1.0 0.0 1
     MIpp8   none   factor  1.00E-01    0.0001       0.5 Por2     1.0 0.0 1
     MIpp9   none   factor  1.00E-01    0.0001       0.5 Por2     1.0 0.0 1
     MIpp10  none   factor  1.00E-01    0.0001       0.5 Por2     1.0 0.0 1
     MIpp11  none   factor  1.00E-01    0.0001       0.5 Por2     1.0 0.0 1
     MIpp12  none   factor  1.00E-01    0.0001       0.5 Por2     1.0 0.0 1
     MIpp13  none   factor  1.00E-01    0.0001       0.5 Por2     1.0 0.0 1
     MIpp14  none   factor  1.00E-01    0.0001       0.5 Por2     1.0 0.0 1
     MIpp15  none   factor  1.00E-01    0.0001       0.5 Por2     1.0 0.0 1
     MIpp16  none   factor  1.00E-01    0.0001       0.5 Por2     1.0 0.0 1
     MIpp17  none   factor  1.00E-01    0.0001       0.5 Por2     1.0 0.0 1
     MIpp18  none   factor  1.00E-01    0.0001       0.5 Por2     1.0 0.0 1
     MIpp19  none   factor  1.00E-01    0.0001       0.5 Por2     1.0 0.0 1
     MIpp20  none   factor  1.00E-01    0.0001       0.5 Por2     1.0 0.0 1
     MIpp21  none   factor  1.00E-01    0.0001       0.5 Por2     1.0 0.0 1
     MIpp22  none   factor  1.00E-01    0.0001       0.5 Por2     1.0 0.0 1
     MIpp23  none   factor  1.00E-01    0.0001       0.5 Por2     1.0 0.0 1
     MIpp24  none   factor  1.00E-01    0.0001       0.5 Por2     1.0 0.0 1
     MIpp25  none   factor  1.00E-01    0.0001       0.5 Por2     1.0 0.0 1
     MIpp26  none   factor  1.00E-01    0.0001       0.5 Por2     1.0 0.0 1
     MIpp27  none   factor  1.00E-01    0.0001       0.5 Por2     1.0 0.0 1
     MIpp28  none   factor  1.00E-01    0.0001       0.5 Por2     1.0 0.0 1
     MIpp29  none   factor  1.00E-01    0.0001       0.5 Por2     1.0 0.0 1
     MIpp30  none   factor  1.00E-01    0.0001       0.5 Por2     1.0 0.0 1
     MIpp31  none   factor  1.00E-01    0.0001       0.5 Por2     1.0 0.0 1
     MIpp32  none   factor  1.00E-01    0.0001       0.5 Por2     1.0 0.0 1
     MIpp33  none   factor  1.00E-01    0.0001       0.5 Por2     1.0 0.0 1
     MIpp34  none   factor  1.00E-01    0.0001       0.5 Por2     1.0 0.0 1
     MIpp35  none   factor  1.00E-01    0.0001       0.5 Por2     1.0 0.0 1
     MIpp36  none   factor  1.00E-01    0.0001       0.5 Por2     1.0 0.0 1
     MIpp37  none   factor  1.00E-01    0.0001       0.5 Por2     1.0 0.0 1
     DIpp1   none   factor  1.00E-01    0.0001       0.5 Por2     1.0 0.0 1
     DIpp2   none   factor  1.00E-01    0.0001       0.5 Por2     1.0 0.0 1
     DIpp3   none   factor  1.00E-01    0.0001       0.5 Por2     1.0 0.0 1
     DIpp4   none   factor  1.00E-01    0.0001       0.5 Por2     1.0 0.0 1
     DIpp5   none   factor  1.00E-01    0.0001       0.5 Por2     1.0 0.0 1
     DIpp6   none   factor  1.00E-01    0.0001       0.5 Por2     1.0 0.0 1
     DIpp7   none   factor  1.00E-01    0.0001       0.5 Por2     1.0 0.0 1
     DIpp8   none   factor  1.00E-01    0.0001       0.5 Por2     1.0 0.0 1
     DIpp9   none   factor  1.00E-01    0.0001       0.5 Por2     1.0 0.0 1
     DIpp10  none   factor  1.00E-01    0.0001       0.5 Por2     1.0 0.0 1
     DIpp11  none   factor  1.00E-01    0.0001       0.5 Por2     1.0 0.0 1
     DIpp12  none   factor  1.00E-01    0.0001       0.5 Por2     1.0 0.0 1
     DIpp13  none   factor  1.00E-01    0.0001       0.5 Por2     1.0 0.0 1
     DIpp14  none   factor  1.00E-01    0.0001       0.5 Por2     1.0 0.0 1
     DIpp15  none   factor  1.00E-01    0.0001       0.5 Por2     1.0 0.0 1
     DIpp16  none   factor  1.00E-01    0.0001       0.5 Por2     1.0 0.0 1
     DIpp17  none   factor  1.00E-01    0.0001       0.5 Por2     1.0 0.0 1
     DIpp18  none   factor  1.00E-01    0.0001       0.5 Por2     1.0 0.0 1
     DIpp19  none   factor  1.00E-01    0.0001       0.5 Por2     1.0 0.0 1
     DIpp20  none   factor  1.00E-01    0.0001       0.5 Por2     1.0 0.0 1
     DIpp21  none   factor  1.00E-01    0.0001       0.5 Por2     1.0 0.0 1
     DIpp22  none   factor  1.00E-01    0.0001       0.5 Por2     1.0 0.0 1
     DIpp23  none   factor  1.00E-01    0.0001       0.5 Por2     1.0 0.0 1
     DIpp24  none   factor  1.00E-01    0.0001       0.5 Por2     1.0 0.0 1
     DIpp25  none   factor  1.00E-01    0.0001       0.5 Por2     1.0 0.0 1
     DIpp26  none   factor  1.00E-01    0.0001       0.5 Por2     1.0 0.0 1
     DIpp27  none   factor  1.00E-01    0.0001       0.5 Por2     1.0 0.0 1
     DIpp28  none   factor  1.00E-01    0.0001       0.5 Por2     1.0 0.0 1
     DIpp29  none   factor  1.00E-01    0.0001       0.5 Por2     1.0 0.0 1
     DIpp30  none   factor  1.00E-01    0.0001       0.5 Por2     1.0 0.0 1
     DIpp31  none   factor  1.00E-01    0.0001       0.5 Por2     1.0 0.0 1
     DIpp32  none   factor  1.00E-01    0.0001       0.5 Por2     1.0 0.0 1
     DIpp33  none   factor  1.00E-01    0.0001       0.5 Por2     1.0 0.0 1
     DIpp34  none   factor  1.00E-01    0.0001       0.5 Por2     1.0 0.0 1
     DIpp35  none   factor  1.00E-01    0.0001       0.5 Por2     1.0 0.0 1
     DIpp36  none   factor  1.00E-01    0.0001       0.5 Por2     1.0 0.0 1
     DIpp37  none   factor  1.00E-01    0.0001       0.5 Por2     1.0 0.0 1
     SRpp1   none   factor  1.00E-04        1.00E-10   1.00E-00 MassR8      1.0 0.0 1
     SRpp2   none   factor  1.00E-04    1.00E-10   1.00E-00 MassR8     1.0 0.0 1
     SRpp3   none   factor  1.00E-04    1.00E-10   1.00E-00 MassR8     1.0 0.0 1
     SRpp4   none   factor  1.00E-04    1.00E-10   1.00E-00 MassR8     1.0 0.0 1
     SRpp5   none   factor  1.00E-04    1.00E-10   1.00E-00 MassR8     1.0 0.0 1
     SRpp6   none   factor  1.00E-04    1.00E-10   1.00E-00 MassR8     1.0 0.0 1
     SRpp7   none   factor  1.00E-04    1.00E-10   1.00E-00 MassR8     1.0 0.0 1
     SRpp8   none   factor  1.00E-04    1.00E-10   1.00E-00 MassR8     1.0 0.0 1
     SRpp9   none   factor  1.00E-04    1.00E-10   1.00E-00 MassR8     1.0 0.0 1
     SRpp10  none   factor  1.00E-04    1.00E-10   1.00E-00 MassR8     1.0 0.0 1
     SRpp11  none   factor  1.00E-04    1.00E-10   1.00E-00 MassR8     1.0 0.0 1
     SRpp12  none   factor  1.00E-04    1.00E-10   1.00E-00 MassR8     1.0 0.0 1
     SRpp13  none   factor  1.00E-04    1.00E-10   1.00E-00 MassR8     1.0 0.0 1
     SRpp14  none   factor  1.00E-04    1.00E-10   1.00E-00 MassR8     1.0 0.0 1
     SRpp15  none   factor  1.00E-04    1.00E-10   1.00E-00 MassR8     1.0 0.0 1
     SRpp16  none   factor  1.00E-04    1.00E-10   1.00E-00 MassR8     1.0 0.0 1
     SRpp17  none   factor  1.00E-04    1.00E-10   1.00E-00 MassR8     1.0 0.0 1
     SRpp18  none   factor  1.00E-04    1.00E-10   1.00E-00 MassR8     1.0 0.0 1
     SRpp19  none   factor  1.00E-04    1.00E-10   1.00E-00 MassR8     1.0 0.0 1
     SRpp20  none   factor  1.00E-04    1.00E-10   1.00E-00 MassR8     1.0 0.0 1
     SRpp21  none   factor  1.00E-04    1.00E-10   1.00E-00 MassR8     1.0 0.0 1
     SRpp22  none   factor  1.00E-04    1.00E-10   1.00E-00 MassR8     1.0 0.0 1
     SRpp23  none   factor  1.00E-04    1.00E-10   1.00E-00 MassR8     1.0 0.0 1
     SRpp24  none   factor  1.00E-04    1.00E-10   1.00E-00 MassR8     1.0 0.0 1
     SRpp25  none   factor  1.00E-04    1.00E-10   1.00E-00 MassR8     1.0 0.0 1
     SRpp26  none   factor  1.00E-04    1.00E-10   1.00E-00 MassR8     1.0 0.0 1
     SRpp27  none   factor  1.00E-04    1.00E-10   1.00E-00 MassR8     1.0 0.0 1
     SRpp28  none   factor  1.00E-04    1.00E-10   1.00E-00 MassR8     1.0 0.0 1
     SRpp29  none   factor  1.00E-04    1.00E-10   1.00E-00 MassR8     1.0 0.0 1
     SRpp30  none   factor  1.00E-04    1.00E-10   1.00E-00 MassR8     1.0 0.0 1
     SRpp31  none   factor  1.00E-04    1.00E-10   1.00E-00 MassR8     1.0 0.0 1
     SRpp32  none   factor  1.00E-04    1.00E-10   1.00E-00 MassR8     1.0 0.0 1
     SRpp33  none   factor  1.00E-04    1.00E-10   1.00E-00 MassR8     1.0 0.0 1
     SRpp34  none   factor  1.00E-04    1.00E-10   1.00E-00 MassR8     1.0 0.0 1
     SRpp35  none   factor  1.00E-04    1.00E-10   1.00E-00 MassR8     1.0 0.0 1
     SRpp36  none   factor  1.00E-04    1.00E-10   1.00E-00 MassR8     1.0 0.0 1
     SRpp37  none   factor  1.00E-04    1.00E-10   1.00E-00 MassR8     1.0 0.0 1
     MRpp1   none   factor  1.00E-04    1.00E-10   1.00E-00 MassR8     1.0 0.0 1
     MRpp2   none   factor  1.00E-04    1.00E-10   1.00E-00 MassR8     1.0 0.0 1
     MRpp3   none   factor  1.00E-04    1.00E-10   1.00E-00 MassR8     1.0 0.0 1
     MRpp4   none   factor  1.00E-04    1.00E-10   1.00E-00 MassR8     1.0 0.0 1
     MRpp5   none   factor  1.00E-04    1.00E-10   1.00E-00 MassR8     1.0 0.0 1
     MRpp6   none   factor  1.00E-04    1.00E-10   1.00E-00 MassR8     1.0 0.0 1
     MRpp7   none   factor  1.00E-04    1.00E-10   1.00E-00 MassR8     1.0 0.0 1
     MRpp8   none   factor  1.00E-04    1.00E-10   1.00E-00 MassR8     1.0 0.0 1
     MRpp9   none   factor  1.00E-04    1.00E-10   1.00E-00 MassR8     1.0 0.0 1
     MRpp10  none   factor  1.00E-04    1.00E-10   1.00E-00 MassR8     1.0 0.0 1
     MRpp11  none   factor  1.00E-04    1.00E-10   1.00E-00 MassR8     1.0 0.0 1
     MRpp12  none   factor  1.00E-04    1.00E-10   1.00E-00 MassR8     1.0 0.0 1
     MRpp13  none   factor  1.00E-04    1.00E-10   1.00E-00 MassR8     1.0 0.0 1
     MRpp14  none   factor  1.00E-04    1.00E-10   1.00E-00 MassR8     1.0 0.0 1
     MRpp15  none   factor  1.00E-04    1.00E-10   1.00E-00 MassR8     1.0 0.0 1
     MRpp16  none   factor  1.00E-04    1.00E-10   1.00E-00 MassR8     1.0 0.0 1
     MRpp17  none   factor  1.00E-04    1.00E-10   1.00E-00 MassR8     1.0 0.0 1
     MRpp18  none   factor  1.00E-04    1.00E-10   1.00E-00 MassR8     1.0 0.0 1
     MRpp19  none   factor  1.00E-04    1.00E-10   1.00E-00 MassR8     1.0 0.0 1
     MRpp20  none   factor  1.00E-04    1.00E-10   1.00E-00 MassR8     1.0 0.0 1
     MRpp21  none   factor  1.00E-04    1.00E-10   1.00E-00 MassR8     1.0 0.0 1
     MRpp22  none   factor  1.00E-04    1.00E-10   1.00E-00 MassR8     1.0 0.0 1
     MRpp23  none   factor  1.00E-04    1.00E-10   1.00E-00 MassR8     1.0 0.0 1
     MRpp24  none   factor  1.00E-04    1.00E-10   1.00E-00 MassR8     1.0 0.0 1
     MRpp25  none   factor  1.00E-04    1.00E-10   1.00E-00 MassR8     1.0 0.0 1
     MRpp26  none   factor  1.00E-04    1.00E-10   1.00E-00 MassR8     1.0 0.0 1
     MRpp27  none   factor  1.00E-04    1.00E-10   1.00E-00 MassR8     1.0 0.0 1
     MRpp28  none   factor  1.00E-04    1.00E-10   1.00E-00 MassR8     1.0 0.0 1
     MRpp29  none   factor  1.00E-04    1.00E-10   1.00E-00 MassR8     1.0 0.0 1
     MRpp30  none   factor  1.00E-04    1.00E-10   1.00E-00 MassR8     1.0 0.0 1
     MRpp31  none   factor  1.00E-04    1.00E-10   1.00E-00 MassR8     1.0 0.0 1
     MRpp32  none   factor  1.00E-04    1.00E-10   1.00E-00 MassR8     1.0 0.0 1
     MRpp33  none   factor  1.00E-04    1.00E-10   1.00E-00 MassR8     1.0 0.0 1
     MRpp34  none   factor  1.00E-04    1.00E-10   1.00E-00 MassR8     1.0 0.0 1
     MRpp35  none   factor  1.00E-04    1.00E-10   1.00E-00 MassR8     1.0 0.0 1
     MRpp36  none   factor  1.00E-04    1.00E-10   1.00E-00 MassR8     1.0 0.0 1
     MRpp37  none   factor  1.00E-04    1.00E-10   1.00E-00 MassR8     1.0 0.0 1
     DRpp1   none   factor  1.00E-04    1.00E-10   1.00E-00 MassR8     1.0 0.0 1
     DRpp2   none   factor  1.00E-04    1.00E-10   1.00E-00 MassR8     1.0 0.0 1
     DRpp3   none   factor  1.00E-04    1.00E-10   1.00E-00 MassR8     1.0 0.0 1
     DRpp4   none   factor  1.00E-04    1.00E-10   1.00E-00 MassR8     1.0 0.0 1
     DRpp5   none   factor  1.00E-04    1.00E-10   1.00E-00 MassR8     1.0 0.0 1
     DRpp6   none   factor  1.00E-04    1.00E-10   1.00E-00 MassR8     1.0 0.0 1
     DRpp7   none   factor  1.00E-04    1.00E-10   1.00E-00 MassR8     1.0 0.0 1
     DRpp8   none   factor  1.00E-04    1.00E-10   1.00E-00 MassR8     1.0 0.0 1
     DRpp9   none   factor  1.00E-04    1.00E-10   1.00E-00 MassR8     1.0 0.0 1
     DRpp10  none   factor  1.00E-04    1.00E-10   1.00E-00 MassR8     1.0 0.0 1
     DRpp11  none   factor  1.00E-04    1.00E-10   1.00E-00 MassR8     1.0 0.0 1
     DRpp12  none   factor  1.00E-04    1.00E-10   1.00E-00 MassR8     1.0 0.0 1
     DRpp13  none   factor  1.00E-04    1.00E-10   1.00E-00 MassR8     1.0 0.0 1
     DRpp14  none   factor  1.00E-04    1.00E-10   1.00E-00 MassR8     1.0 0.0 1
     DRpp15  none   factor  1.00E-04    1.00E-10   1.00E-00 MassR8     1.0 0.0 1
     DRpp16  none   factor  1.00E-04    1.00E-10   1.00E-00 MassR8     1.0 0.0 1
     DRpp17  none   factor  1.00E-04    1.00E-10   1.00E-00 MassR8     1.0 0.0 1
     DRpp18  none   factor  1.00E-04    1.00E-10   1.00E-00 MassR8     1.0 0.0 1
     DRpp19  none   factor  1.00E-04    1.00E-10   1.00E-00 MassR8     1.0 0.0 1
     DRpp20  none   factor  1.00E-04    1.00E-10   1.00E-00 MassR8     1.0 0.0 1
     DRpp21  none   factor  1.00E-04    1.00E-10   1.00E-00 MassR8     1.0 0.0 1
     DRpp22  none   factor  1.00E-04    1.00E-10   1.00E-00 MassR8     1.0 0.0 1
     DRpp23  none   factor  1.00E-04    1.00E-10   1.00E-00 MassR8     1.0 0.0 1
     DRpp24  none   factor  1.00E-04    1.00E-10   1.00E-00 MassR8     1.0 0.0 1
     DRpp25  none   factor  1.00E-04    1.00E-10   1.00E-00 MassR8     1.0 0.0 1
     DRpp26  none   factor  1.00E-04    1.00E-10   1.00E-00 MassR8     1.0 0.0 1
     DRpp27  none   factor  1.00E-04    1.00E-10   1.00E-00 MassR8     1.0 0.0 1
     DRpp28  none   factor  1.00E-04    1.00E-10   1.00E-00 MassR8     1.0 0.0 1
     DRpp29  none   factor  1.00E-04    1.00E-10   1.00E-00 MassR8     1.0 0.0 1
     DRpp30  none   factor  1.00E-04    1.00E-10   1.00E-00 MassR8     1.0 0.0 1
     DRpp31  none   factor  1.00E-04    1.00E-10   1.00E-00 MassR8     1.0 0.0 1
     DRpp32  none   factor  1.00E-04    1.00E-10   1.00E-00 MassR8     1.0 0.0 1
     DRpp33  none   factor  1.00E-04    1.00E-10   1.00E-00 MassR8     1.0 0.0 1
     DRpp34  none   factor  1.00E-04    1.00E-10   1.00E-00 MassR8     1.0 0.0 1
     DRpp35  none   factor  1.00E-04    1.00E-10   1.00E-00 MassR8     1.0 0.0 1