pcf
* control data
restart regularisation
    250   2555      1      0     13  
    1    4 double point  1    0  0
   10.000       -3.0000      0.3  0.03  10     999  lamforgive  derforgive
      0.100  10.0  0.001
 0.1
    50  0.005  4  4  0.005  4     1.00000000e-04       0
0  0  0  1 nojcosaveitn reisaveitn
* singular value decomposition
     1
   250  5.0000000E-07
     0
* svd assist
nacp9_ss_reg.pst
nacp9_ss_reg.jco
    1    2    0    1    0
* parameter groups
 pargp absolute    0.015  0.0  switch    2.0 parabolic
* parameter data
par1         none  relative   10.000     1.0e-20  1.0e20  pargp  1.0  -10.000      1
par2         none  relative   10.000     1.0e-20  1.0e20  pargp  1.0  -10.000      1
par3         none  relative   10.000     1.0e-20  1.0e20  pargp  1.0  -10.000      1
par4         none  relative   10.000     1.0e-20  1.0e20  pargp  1.0  -10.000      1
par5         none  relative   10.000     1.0e-20  1.0e20  pargp  1.0  -10.000      1
par6         none  relative   10.000     1.0e-20  1.0e20  pargp  1.0  -10.000      1
par7         none  relative   10.000     1.0e-20  1.0e20  pargp  1.0  -10.000      1
par8         none  relative   10.000     1.0e-20  1.0e20  pargp  1.0  -10.000      1
par9         none  relative   10.000     1.0e-20  1.0e20  pargp  1.0  -10.000      1
par10        none  relative   10.000     1.0e-20  1.0e20  pargp  1.0  -10.000      1
par11        none  relative   10.000     1.0e-20  1.0e20  pargp  1.0  -10.000      1
par12        none  relative   10.000     1.0e-20  1.0e20  pargp  1.0  -10.000      1
par13        none  relative   10.000     1.0e-20  1.0e20  pargp  1.0  -10.000      1
par14        none  relative   10.000     1.0e-20  1.0e20  pargp  1.0  -10.000      1
par15        none  relative   10.000     1.0e-20  1.0e20  pargp  1.0  -10.000      1
par16        none  relative   10.000     1.0e-20  1.0e20  pargp  1.0  -10.000      1
par17        none  relative   10.000     1.0e-20  1.0e20  pargp  1.0  -10.000      1
par18        none  relative   10.000     1.0e-20  1.0e20  pargp  1.0  -10.000      1
par19        none  relative   10.000     1.0e-20  1.0e20  pargp  1.0  -10.000      1
par20        none  relative   10.000     1.0e-20  1.0e20  pargp  1.0  -10.000      1
par21        none  relative   10.000     1.0e-20  1.0e20  pargp  1.0  -10.000      1
par22        none  relative   10.000     1.0e-20  1.0e20  pargp  1.0  -10.000      1
par23        none  relative   10.000     1.0e-20  1.0e20  pargp  1.0  -10.000      1
par24        none  relative   10.000     1.0e-20  1.0e20  pargp  1.0  -10.000      1
par25        none  relative   10.000     1.0e-20  1.0e20  pargp  1.0  -10.000      1
par26        none  relative   10.000     1.0e-20  1.0e20  pargp  1.0  -10.000      1
par27        none  relative   10.000     1.0e-20  1.0e20  pargp  1.0  -10.000      1
par28        none  relative   10.000     1.0e-20  1.0e20  pargp  1.0  -10.000      1
par29        none  relative   10.000     1.0e-20  1.0e20  pargp  1.0  -10.000      1
par30        none  relative   10.000     1.0e-20  1.0e20  pargp  1.0  -10.000      1
par31        none  relative   10.000     1.0e-20  1.0e20  pargp  1.0  -10.000      1
par32        none  relative   10.000     1.0e-20  1.0e20  pargp  1.0  -10.000      1
par33        none  relative   10.000     1.0e-20  1.0e20  pargp  1.0  -10.000      1
par34        none  relative   10.000     1.0e-20  1.0e20  pargp  1.0  -10.000      1
par35        none  relative   10.000     1.0e-20  1.0e20  pargp  1.0  -10.000      1
par36        none  relative   10.000     1.0e-20  1.0e20  pargp  1.0  -10.000      1
par37        none  relative   10.000     1.0e-20  1.0e20  pargp  1.0  -10.000      1
par38        none  relative   10.000     1.0e-20  1.0e20  pargp  1.0  -10.000      1
par39        none  relative   10.000     1.0e-20  1.0e20  pargp  1.0  -10.000      1
par40        none  relative   10.000     1.0e-20  1.0e20  pargp  1.0  -10.000      1
par41        none  relative   10.000     1.0e-20  1.0e20  pargp  1.0  -10.000      1
par42        none  relative   10.000     1.0e-20  1.0e20  pargp  1.0  -10.000      1
par43        none  relative   10.000     1.0e-20  1.0e20  pargp  1.0  -10.000      1
par44        none  relative   10.000     1.0e-20  1.0e20  pargp  1.0  -10.000      1
par45        none  relative   10.000     1.0e-20  1.0e20  pargp  1.0  -10.000      1
par46        none  relative   10.000     1.0e-20  1.0e20  pargp  1.0  -10.000      1
par47        none  relative   10.000     1.0e-20  1.0e20  pargp  1.0  -10.000      1
par48        none  relative   10.000     1.0e-20  1.0e20  pargp  1.0  -10.000      1
par49        none  relative   10.000     1.0e-20  1.0e20  pargp  1.0  -10.000      1
par50        none  relative   10.000     1.0e-20  1.0e20  pargp  1.0  -10.000      1
par51        none  relative   10.000     1.0e-20  1.0e20  pargp  1.0  -10.000      1
par52        none  relative   10.000     1.0e-20  1.0e20  pargp  1.0  -10.000      1
par53        none  relative   10.000     1.0e-20  1.0e20  pargp  1.0  -10.000      1
par54        none  relative   10.000     1.0e-20  1.0e20  pargp  1.0  -10.000      1
par55        none  relative   10.000     1.0e-20  1.0e20  pargp  1.0  -10.000      1
par56        none  relative   10.000     1.0e-20  1.0e20  pargp  1.0  -10.000      1
par57        none  relative   10.000     1.0e-20  1.0e20  pargp  1.0  -10.000      1
par58        none  relative   10.000     1.0e-20  1.0e20  pargp  1.0  -10.000      1
par59        none  relative   10.000     1.0e-20  1.0e20  pargp  1.0  -10.000      1
par60        none  relative   10.000     1.0e-20  1.0e20  pargp  1.0  -10.000      1
par61        none  relative   10.000     1.0e-20  1.0e20  pargp  1.0  -10.000      1
par62        none  relative   10.000     1.0e-20  1.0e20  pargp  1.0  -10.000      1
par63        none  relative   10.000     1.0e-20  1.0e20  pargp  1.0  -10.000      1
par64        none  relative   10.000     1.0e-20  1.0e20  pargp  1.0  -10.000      1
par65        none  relative   10.000     1.0e-20  1.0e20  pargp  1.0  -10.000      1
par66        none  relative   10.000     1.0e-20  1.0e20  pargp  1.0  -10.000      1
par67        none  relative   10.000     1.0e-20  1.0e20  pargp  1.0  -10.000      1
par68        none  relative   10.000     1.0e-20  1.0e20  pargp  1.0  -10.000      1
par69        none  relative   10.000     1.0e-20  1.0e20  pargp  1.0  -10.000      1
par70        none  relative   10.000     1.0e-20  1.0e20  pargp  1.0  -10.000      1
par71        none  relative   10.000     1.0e-20  1.0e20  pargp  1.0  -10.000      1
par72        none  relative   10.000     1.0e-20  1.0e20  pargp  1.0  -10.000      1
par73        none  relative   10.000     1.0e-20  1.0e20  pargp  1.0  -10.000      1
par74        none  relative   10.000     1.0e-20  1.0e20  pargp  1.0  -10.000      1
par75        none  relative   10.000     1.0e-20  1.0e20  pargp  1.0  -10.000      1
par76        none  relative   10.000     1.0e-20  1.0e20  pargp  1.0  -10.000      1
par77        none  relative   10.000     1.0e-20  1.0e20  pargp  1.0  -10.000      1
par78        none  relative   10.000     1.0e-20  1.0e20  pargp  1.0  -10.000      1
par79        none  relative   10.000     1.0e-20  1.0e20  pargp  1.0  -10.000      1
par80        none  relative   10.000     1.0e-20  1.0e20  pargp  1.0  -10.000      1
par81        none  relative   10.000     1.0e-20  1.0e20  pargp  1.0  -10.000      1
par82        none  relative   10.000     1.0e-20  1.0e20  pargp  1.0  -10.000      1
par83        none  relative   10.000     1.0e-20  1.0e20  pargp  1.0  -10.000      1
par84        none  relative   10.000     1.0e-20  1.0e20  pargp  1.0  -10.000      1
par85        none  relative   10.000     1.0e-20  1.0e20  pargp  1.0  -10.000      1
par86        none  relative   10.000     1.0e-20  1.0e20  pargp  1.0  -10.000      1
par87        none  relative   10.000     1.0e-20  1.0e20  pargp  1.0  -10.000      1
par88        none  relative   10.000     1.0e-20  1.0e20  pargp  1.0  -10.000      1
par89        none  relative   10.000     1.0e-20  1.0e20  pargp  1.0  -10.000      1
par90        none  relative   10.000     1.0e-20  1.0e20  pargp  1.0  -10.000      1
par91        none  relative   10.000     1.0e-20  1.0e20  pargp  1.0  -10.000      1
par92        none  relative   10.000     1.0e-20  1.0e20  pargp  1.0  -10.000      1
par93        none  relative   10.000     1.0e-20  1.0e20  pargp  1.0  -10.000      1
par94        none  relative   10.000     1.0e-20  1.0e20  pargp  1.0  -10.000      1
par95        none  relative   10.000     1.0e-20  1.0e20  pargp  1.0  -10.000      1
par96        none  relative   10.000     1.0e-20  1.0e20  pargp  1.0  -10.000      1
par97        none  relative   10.000     1.0e-20  1.0e20  pargp  1.0  -10.000      1
par98        none  relative   10.000     1.0e-20  1.0e20  pargp  1.0  -10.000      1
par99        none  relative   10.000     1.0e-20  1.0e20  pargp  1.0  -10.000      1
par100       none  relative   10.000     1.0e-20  1.0e20  pargp  1.0  -10.000      1
par101       none  relative   10.000     1.0e-20  1.0e20  pargp  1.0  -10.000      1
par102       none  relative   10.000     1.0e-20  1.0e20  pargp  1.0  -10.000      1
par103       none  relative   10.000     1.0e-20  1.0e20  pargp  1.0  -10.000      1
par104       none  relative   10.000     1.0e-20  1.0e20  pargp  1.0  -10.000      1
par105       none  relative   10.000     1.0e-20  1.0e20  pargp  1.0  -10.000      1
par106       none  relative   10.000     1.0e-20  1.0e20  pargp  1.0  -10.000      1
par107       none  relative   10.000     1.0e-20  1.0e20  pargp  1.0  -10.000      1
par108       none  relative   10.000     1.0e-20  1.0e20  pargp  1.0  -10.000      1
par109       none  relative   10.000     1.0e-20  1.0e20  pargp  1.0  -10.000      1
par110       none  relative   10.000     1.0e-20  1.0e20  pargp  1.0  -10.000      1
par111       none  relative   10.000     1.0e-20  1.0e20  pargp  1.0  -10.000      1
par112       none  relative   10.000     1.0e-20  1.0e20  pargp  1.0  -10.000      1
par113       none  relative   10.000     1.0e-20  1.0e20  pargp  1.0  -10.000      1
par114       none  relative   10.000     1.0e-20  1.0e20  pargp  1.0  -10.000      1
par115       none  relative   10.000     1.0e-20  1.0e20  pargp  1.0  -10.000      1
par116       none  relative   10.000     1.0e-20  1.0e20  pargp  1.0  -10.000      1
par117       none  relative   10.000     1.0e-20  1.0e20  pargp  1.0  -10.000      1
par118       none  relative   10.000     1.0e-20  1.0e20  pargp  1.0  -10.000      1
par119       none  relative   10.000     1.0e-20  1.0e20  pargp  1.0  -10.000      1
par120       none  relative   10.000     1.0e-20  1.0e20  pargp  1.0  -10.000      1
par121       none  relative   10.000     1.0e-20  1.0e20  pargp  1.0  -10.000      1
par122       none  relative   10.000     1.0e-20  1.0e20  pargp  1.0  -10.000      1
par123       none  relative   10.000     1.0e-20  1.0e20  pargp  1.0  -10.000      1
par124       none  relative   10.000     1.0e-20  1.0e20  pargp  1.0  -10.000      1
par125       none  relative   10.000     1.0e-20  1.0e20  pargp  1.0  -10.000      1
par126       none  relative   10.000     1.0e-20  1.0e20  pargp  1.0  -10.000      1
par127       none  relative   10.000     1.0e-20  1.0e20  pargp  1.0  -10.000      1
par128       none  relative   10.000     1.0e-20  1.0e20  pargp  1.0  -10.000      1
par129       none  relative   10.000     1.0e-20  1.0e20  pargp  1.0  -10.000      1
par130       none  relative   10.000     1.0e-20  1.0e20  pargp  1.0  -10.000      1
par131       none  relative   10.000     1.0e-20  1.0e20  pargp  1.0  -10.000      1
par132       none  relative   10.000     1.0e-20  1.0e20  pargp  1.0  -10.000      1
par133       none  relative   10.000     1.0e-20  1.0e20  pargp  1.0  -10.000      1
par134       none  relative   10.000     1.0e-20  1.0e20  pargp  1.0  -10.000      1
par135       none  relative   10.000     1.0e-20  1.0e20  pargp  1.0  -10.000      1
par136       none  relative   10.000     1.0e-20  1.0e20  pargp  1.0  -10.000      1
par137       none  relative   10.000     1.0e-20  1.0e20  pargp  1.0  -10.000      1
par138       none  relative   10.000     1.0e-20  1.0e20  pargp  1.0  -10.000      1
par139       none  relative   10.000     1.0e-20  1.0e20  pargp  1.0  -10.000      1
par140       none  relative   10.000     1.0e-20  1.0e20  pargp  1.0  -10.000      1
par141       none  relative   10.000     1.0e-20  1.0e20  pargp  1.0  -10.000      1
par142       none  relative   10.000     1.0e-20  1.0e20  pargp  1.0  -10.000      1
par143       none  relative   10.000     1.0e-20  1.0e20  pargp  1.0  -10.000      1
par144       none  relative   10.000     1.0e-20  1.0e20  pargp  1.0  -10.000      1
par145       none  relative   10.000     1.0e-20  1.0e20  pargp  1.0  -10.000      1
par146       none  relative   10.000     1.0e-20  1.0e20  pargp  1.0  -10.000      1
par147       none  relative   10.000     1.0e-20  1.0e20  pargp  1.0  -10.000      1
par148       none  relative   10.000     1.0e-20  1.0e20  pargp  1.0  -10.000      1
par149       none  relative   10.000     1.0e-20  1.0e20  pargp  1.0  -10.000      1
par150       none  relative   10.000     1.0e-20  1.0e20  pargp  1.0  -10.000      1
par151       none  relative   10.000     1.0e-20  1.0e20  pargp  1.0  -10.000      1
par152       none  relative   10.000     1.0e-20  1.0e20  pargp  1.0  -10.000      1
par153       none  relative   10.000     1.0e-20  1.0e20  pargp  1.0  -10.000      1
par154       none  relative   10.000     1.0e-20  1.0e20  pargp  1.0  -10.000      1
par155       none  relative   10.000     1.0e-20  1.0e20  pargp  1.0  -10.000      1
par156       none  relative   10.000     1.0e-20  1.0e20  pargp  1.0  -10.000      1
par157       none  relative   10.000     1.0e-20  1.0e20  pargp  1.0  -10.000      1
par158       none  relative   10.000     1.0e-20  1.0e20  pargp  1.0  -10.000      1
par159       none  relative   10.000     1.0e-20  1.0e20  pargp  1.0  -10.000      1
par160       none  relative   10.000     1.0e-20  1.0e20  pargp  1.0  -10.000      1
par161       none  relative   10.000     1.0e-20  1.0e20  pargp  1.0  -10.000      1
par162       none  relative   10.000     1.0e-20  1.0e20  pargp  1.0  -10.000      1
par163       none  relative   10.000     1.0e-20  1.0e20  pargp  1.0  -10.000      1
par164       none  relative   10.000     1.0e-20  1.0e20  pargp  1.0  -10.000      1
par165       none  relative   10.000     1.0e-20  1.0e20  pargp  1.0  -10.000      1
par166       none  relative   10.000     1.0e-20  1.0e20  pargp  1.0  -10.000      1
par167       none  relative   10.000     1.0e-20  1.0e20  pargp  1.0  -10.000      1
par168       none  relative   10.000     1.0e-20  1.0e20  pargp  1.0  -10.000      1
par169       none  relative   10.000     1.0e-20  1.0e20  pargp  1.0  -10.000      1
par170       none  relative   10.000     1.0e-20  1.0e20  pargp  1.0  -10.000      1
par171       none  relative   10.000     1.0e-20  1.0e20  pargp  1.0  -10.000      1
par172       none  relative   10.000     1.0e-20  1.0e20  pargp  1.0  -10.000      1
par173       none  relative   10.000     1.0e-20  1.0e20  pargp  1.0  -10.000      1
par174       none  relative   10.000     1.0e-20  1.0e20  pargp  1.0  -10.000      1
par175       none  relative   10.000     1.0e-20  1.0e20  pargp  1.0  -10.000      1
par176       none  relative   10.000     1.0e-20  1.0e20  pargp  1.0  -10.000      1
par177       none  relative   10.000     1.0e-20  1.0e20  pargp  1.0  -10.000      1
par178       none  relative   10.000     1.0e-20  1.0e20  pargp  1.0  -10.000      1
par179       none  relative   10.000     1.0e-20  1.0e20  pargp  1.0  -10.000      1
par180       none  relative   10.000     1.0e-20  1.0e20  pargp  1.0  -10.000      1
par181       none  relative   10.000     1.0e-20  1.0e20  pargp  1.0  -10.000      1
par182       none  relative   10.000     1.0e-20  1.0e20  pargp  1.0  -10.000      1
par183       none  relative   10.000     1.0e-20  1.0e20  pargp  1.0  -10.000      1
par184       none  relative   10.000     1.0e-20  1.0e20  pargp  1.0  -10.000      1
par185       none  relative   10.000     1.0e-20  1.0e20  pargp  1.0  -10.000      1
par186       none  relative   10.000     1.0e-20  1.0e20  pargp  1.0  -10.000      1
par187       none  relative   10.000     1.0e-20  1.0e20  pargp  1.0  -10.000      1
par188       none  relative   10.000     1.0e-20  1.0e20  pargp  1.0  -10.000      1
par189       none  relative   10.000     1.0e-20  1.0e20  pargp  1.0  -10.000      1
par190       none  relative   10.000     1.0e-20  1.0e20  pargp  1.0  -10.000      1
par191       none  relative   10.000     1.0e-20  1.0e20  pargp  1.0  -10.000      1
par192       none  relative   10.000     1.0e-20  1.0e20  pargp  1.0  -10.000      1
par193       none  relative   10.000     1.0e-20  1.0e20  pargp  1.0  -10.000      1
par194       none  relative   10.000     1.0e-20  1.0e20  pargp  1.0  -10.000      1
par195       none  relative   10.000     1.0e-20  1.0e20  pargp  1.0  -10.000      1
par196       none  relative   10.000     1.0e-20  1.0e20  pargp  1.0  -10.000      1
par197       none  relative   10.000     1.0e-20  1.0e20  pargp  1.0  -10.000      1
par198       none  relative   10.000     1.0e-20  1.0e20  pargp  1.0  -10.000      1
par199       none  relative   10.000     1.0e-20  1.0e20  pargp  1.0  -10.000      1
par200       none  relative   10.000     1.0e-20  1.0e20  pargp  1.0  -10.000      1
par201       none  relative   10.000     1.0e-20  1.0e20  pargp  1.0  -10.000      1
par202       none  relative   10.000     1.0e-20  1.0e20  pargp  1.0  -10.000      1
par203       none  relative   10.000     1.0e-20  1.0e20  pargp  1.0  -10.000      1
par204       none  relative   10.000     1.0e-20  1.0e20  pargp  1.0  -10.000      1
par205       none  relative   10.000     1.0e-20  1.0e20  pargp  1.0  -10.000      1
par206       none  relative   10.000     1.0e-20  1.0e20  pargp  1.0  -10.000      1
par207       none  relative   10.000     1.0e-20  1.0e20  pargp  1.0  -10.000      1
par208       none  relative   10.000     1.0e-20  1.0e20  pargp  1.0  -10.000      1
par209       none  relative   10.000     1.0e-20  1.0e20  pargp  1.0  -10.000      1
par210       none  relative   10.000     1.0e-20  1.0e20  pargp  1.0  -10.000      1
par211       none  relative   10.000     1.0e-20  1.0e20  pargp  1.0  -10.000      1
par212       none  relative   10.000     1.0e-20  1.0e20  pargp  1.0  -10.000      1
par213       none  relative   10.000     1.0e-20  1.0e20  pargp  1.0  -10.000      1
par214       none  relative   10.000     1.0e-20  1.0e20  pargp  1.0  -10.000      1
par215       none  relative   10.000     1.0e-20  1.0e20  pargp  1.0  -10.000      1
par216       none  relative   10.000     1.0e-20  1.0e20  pargp  1.0  -10.000      1
par217       none  relative   10.000     1.0e-20  1.0e20  pargp  1.0  -10.000      1
par218       none  relative   10.000     1.0e-20  1.0e20  pargp  1.0  -10.000      1
par219       none  relative   10.000     1.0e-20  1.0e20  pargp  1.0  -10.000      1
par220       none  relative   10.000     1.0e-20  1.0e20  pargp  1.0  -10.000      1
par221       none  relative   10.000     1.0e-20  1.0e20  pargp  1.0  -10.000      1
par222       none  relative   10.000     1.0e-20  1.0e20  pargp  1.0  -10.000      1
par223       none  relative   10.000     1.0e-20  1.0e20  pargp  1.0  -10.000      1
par224       none  relative   10.000     1.0e-20  1.0e20  pargp  1.0  -10.000      1
par225       none  relative   10.000     1.0e-20  1.0e20  pargp  1.0  -10.000      1
par226       none  relative   10.000     1.0e-20  1.0e20  pargp  1.0  -10.000      1
par227       none  relative   10.000     1.0e-20  1.0e20  pargp  1.0  -10.000      1
par228       none  relative   10.000     1.0e-20  1.0e20  pargp  1.0  -10.000      1
par229       none  relative   10.000     1.0e-20  1.0e20  pargp  1.0  -10.000      1
par230       none  relative   10.000     1.0e-20  1.0e20  pargp  1.0  -10.000      1
par231       none  relative   10.000     1.0e-20  1.0e20  pargp  1.0  -10.000      1
par232       none  relative   10.000     1.0e-20  1.0e20  pargp  1.0  -10.000      1
par233       none  relative   10.000     1.0e-20  1.0e20  pargp  1.0  -10.000      1
par234       none  relative   10.000     1.0e-20  1.0e20  pargp  1.0  -10.000      1
par235       none  relative   10.000     1.0e-20  1.0e20  pargp  1.0  -10.000      1
par236       none  relative   10.000     1.0e-20  1.0e20  pargp  1.0  -10.000      1
par237       none  relative   10.000     1.0e-20  1.0e20  pargp  1.0  -10.000      1
par238       none  relative   10.000     1.0e-20  1.0e20  pargp  1.0  -10.000      1
par239       none  relative   10.000     1.0e-20  1.0e20  pargp  1.0  -10.000      1
par240       none  relative   10.000     1.0e-20  1.0e20  pargp  1.0  -10.000      1
par241       none  relative   10.000     1.0e-20  1.0e20  pargp  1.0  -10.000      1
par242       none  relative   10.000     1.0e-20  1.0e20  pargp  1.0  -10.000      1
par243       none  relative   10.000     1.0e-20  1.0e20  pargp  1.0  -10.000      1
par244       none  relative   10.000     1.0e-20  1.0e20  pargp  1.0  -10.000      1
par245       none  relative   10.000     1.0e-20  1.0e20  pargp  1.0  -10.000      1
par246       none  relative   10.000     1.0e-20  1.0e20  pargp  1.0  -10.000      1
par247       none  relative   10.000     1.0e-20  1.0e20  pargp  1.0  -10.000      1
par248       none  relative   10.000     1.0e-20  1.0e20  pargp  1.0  -10.000      1
par249       none  relative   10.000     1.0e-20  1.0e20  pargp  1.0  -10.000      1
par250       none  relative   10.000     1.0e-20  1.0e20  pargp  1.0  -10.000      1
* observation groups
 Q_NHD
 Q_NWIS_A
 Q_NWIS_B
 Q_NWIS_Z
 A1
 B1
 C1
 D1
 Z
regul_kx
regul_rch
regul_kp
regul_kz
* observation data
50929nhd  29.21  3.680246E-01  q_nhd
52942nhd  30.68  3.503911E-01  q_nhd
47418nhd  10.40  1.033654E+00  q_nhd
43422nhd  20.48  5.249023E-01  q_nhd
37360nhd  33.13  3.244793E-01  q_nhd
36361nhd  42.73  2.515797E-01  q_nhd
32864nhd  21.32  5.042214E-01  q_nhd
30359nhd  177.35  6.061460E-02  q_nhd
27860nhd  40.06  2.683475E-01  q_nhd
26845nhd  158.33  6.789617E-02  q_nhd
41352nhd  82.55  1.302241E-01  q_nhd
41848nhd  47.75  2.251309E-01  q_nhd
45336nhd  59.96  1.792862E-01  q_nhd
44313nhd  201.30  5.340288E-02  q_nhd
41807nhd  85.03  1.264260E-01  q_nhd
26835nhd  154.24  6.969658E-02  q_nhd
29832nhd  30.64  3.508486E-01  q_nhd
28828nhd  17.63  6.097561E-01  q_nhd
28826nhd  59.66  1.801877E-01  q_nhd
27304nhd  94.84  1.133488E-01  q_nhd
27798nhd  56.35  1.907720E-01  q_nhd
25791nhd  66.71  1.611453E-01  q_nhd
24288nhd  46.86  2.294067E-01  q_nhd
20777nhd  70.34  1.528291E-01  q_nhd
38281nhd  323.09  3.327246E-02  q_nhd
40283nhd  41.41  2.595991E-01  q_nhd
47276nhd  48.87  2.199714E-01  q_nhd
29261nhd  78.75  1.365079E-01  q_nhd
31256nhd  32.80  3.277439E-01  q_nhd
34252nhd  44.14  2.435433E-01  q_nhd
38243nhd  26.89  3.997769E-01  q_nhd
38742nhd  19.75  5.443038E-01  q_nhd
41245nhd  63.15  1.702296E-01  q_nhd
14242nhd  22.56  4.765071E-01  q_nhd
12241nhd  11.34  9.479718E-01  q_nhd
10736nhd  6.62  1.623867E+00  q_nhd
10226nhd  14.44  7.444598E-01  q_nhd
8221nhd  14.87  7.229321E-01  q_nhd
8718nhd  63.43  1.694782E-01  q_nhd
16195nhd  201.57  5.333135E-02  q_nhd
20188nhd  24.56  4.377036E-01  q_nhd
15763nhd  26.14  4.112471E-01  q_nhd
17265nhd  16.27  6.607253E-01  q_nhd
18266nhd  19.10  5.628272E-01  q_nhd
24747nhd  112.02  9.596501E-02  q_nhd
24743nhd  30.56  3.517670E-01  q_nhd
30226nhd  117.69  9.134166E-02  q_nhd
32234nhd  161.53  6.655111E-02  q_nhd
33230nhd  20.38  5.274779E-01  q_nhd
38720nhd  183.64  5.853844E-02  q_nhd
43725nhd  150.34  7.150459E-02  q_nhd
45224nhd  67.55  1.591414E-01  q_nhd
49708nhd  45.07  2.385179E-01  q_nhd
58208nhd  211.53  5.082021E-02  q_nhd
9692nhd  118.18  9.096294E-02  q_nhd
9672nhd  21.66  4.963066E-01  q_nhd
8671nhd  19.15  5.613577E-01  q_nhd
13678nhd  65.91  1.631012E-01  q_nhd
13168nhd  88.12  1.219927E-01  q_nhd
12146nhd  32.01  3.358326E-01  q_nhd
20166nhd  120.54  8.918201E-02  q_nhd
21166nhd  51.71  2.078902E-01  q_nhd
28668nhd  38.67  2.779933E-01  q_nhd
33670nhd  35.52  3.026464E-01  q_nhd
14139nhd  39.70  2.707809E-01  q_nhd
27142nhd  33.40  3.218563E-01  q_nhd
31148nhd  48.61  2.211479E-01  q_nhd
31140nhd  26.33  4.082795E-01  q_nhd
32139nhd  24.90  4.317269E-01  q_nhd
33137nhd  31.85  3.375196E-01  q_nhd
37147nhd  28.74  3.740431E-01  q_nhd
46131nhd  135.70  7.921887E-02  q_nhd
51125nhd  31.28  3.436701E-01  q_nhd
51624nhd  15.60  6.891026E-01  q_nhd
33114nhd  29.21  3.680246E-01  q_nhd
34617nhd  27.72  3.878066E-01  q_nhd
46625nhd  15.24  7.053806E-01  q_nhd
30095nhd  8.16  1.317402E+00  q_nhd
31095nhd  9.86  1.090264E+00  q_nhd
38098nhd  25.92  4.147377E-01  q_nhd
35084nhd  12.79  8.405004E-01  q_nhd
43095nhd  19.66  5.467955E-01  q_nhd
48607nhd  19.38  5.546956E-01  q_nhd
54103nhd  14.36  7.486072E-01  q_nhd
60612nhd  12.33  8.718573E-01  q_nhd
57597nhd  20.23  5.313890E-01  q_nhd
62590nhd  59.96  1.792862E-01  q_nhd
64088nhd  94.29  1.140100E-01  q_nhd
60066nhd  705.88  1.522922E-02  q_nhd
58563nhd  34.05  3.157122E-01  q_nhd
61565nhd  100.94  1.064989E-01  q_nhd
75579nhd  186.41  5.766858E-02  q_nhd
76104nhd  22.60  4.756637E-01  q_nhd
76100nhd  30.82  3.487995E-01  q_nhd
59056nhd  331.48  3.243031E-02  q_nhd
58054nhd  69.23  1.552795E-01  q_nhd
61558nhd  9.99  1.076076E+00  q_nhd
62053nhd  205.83  5.222757E-02  q_nhd
67061nhd  41.19  2.609857E-01  q_nhd
68064nhd  91.57  1.173965E-01  q_nhd
60530nhd  241.18  4.457252E-02  q_nhd
60525nhd  18.55  5.795148E-01  q_nhd
73530nhd  57.77  1.860827E-01  q_nhd
70533nhd  98.27  1.093925E-01  q_nhd
73522nhd  108.47  9.910574E-02  q_nhd
74505nhd  171.38  6.272611E-02  q_nhd
74004nhd  81.93  1.312096E-01  q_nhd
64501nhd  556.24  1.932619E-02  q_nhd
65501nhd  93.94  1.144347E-01  q_nhd
43339nhd  200.41  5.364004E-02  q_nhd
41307nhd  182.58  5.887830E-02  q_nhd
28835nhd  199.99  5.375269E-02  q_nhd
29319nhd  516.14  2.082768E-02  q_nhd
10737nhd  5.38  1.998141E+00  q_nhd
16692nhd  113.18  9.498145E-02  q_nhd
46719nhd  88.42  1.215788E-01  q_nhd
31625nhd  470.73  2.283687E-02  q_nhd
32117nhd  248.30  4.329440E-02  q_nhd
35114nhd  31.68  3.393308E-01  q_nhd
39108nhd  227.74  4.720295E-02  q_nhd
58065nhd  784.66  1.370020E-02  q_nhd
66551nhd  158.51  6.781907E-02  q_nhd
68552nhd  66.97  1.605196E-01  q_nhd
60031nhd  16.25  6.615385E-01  q_nhd
71534nhd  161.51  6.655935E-02  q_nhd
78007nhd  57.19  1.879699E-01  q_nhd
19777nhd  60.42  1.779212E-01  q_nhd
85515nhd  60.00  1.791667E-01  q_nhd
34627nhd  27.77  3.871084E-01  q_nhd
H0029  -3.31  0.000000E+00  Z
H0036  8.69  0.000000E+00  Z
H0037  21.80  2.200000E-01  B1
H0042  31.47  0.000000E+00  Z
H0043  1.02  0.000000E+00  Z
H0048  29.91  0.000000E+00  Z
H0064  5.19  0.000000E+00  Z
H0086  15.00  0.000000E+00  Z
H0099  9.87  0.000000E+00  Z
H0115  11.78  0.000000E+00  Z
H0116  -0.13  9.000000E-01  C1
H0117  -7.68  1.000000E+00  D1
H0118  -9.34  0.000000E+00  Z
H0119  -93.27  2.450000E-01  A1
H0121  -51.60  0.000000E+00  Z
H0123  4.45  1.000000E+00  D1
H0124  -108.23  2.450000E-01  A1
H0126  4.15  1.000000E+00  D1
H0129  -20.50  0.000000E+00  Z
H0130  -141.79  2.450000E-01  A1
H0131  -112.18  2.450000E-01  A1
H0132  -84.17  2.450000E-01  A1
H0133  8.32  9.000000E-01  C1
H0134  26.63  2.200000E-01  B1
H0135  4.35  9.000000E-01  C1
H0136  4.49  0.000000E+00  Z
H0137  -119.79  2.450000E-01  A1
H0140  2.90  0.000000E+00  Z
H0141  49.96  2.200000E-01  B1
H0142  -78.01  2.450000E-01  A1
H0143  4.37  0.000000E+00  Z
H0144  47.54  2.450000E-01  A1
H0145  81.62  2.200000E-01  B1
H0149  -3.21  0.000000E+00  Z
H0153  16.93  2.200000E-01  B1
H0154  65.60  2.450000E-01  A1
H0156  2.21  1.000000E+00  D1
H0157  5.52  9.000000E-01  C1
H0164  -77.03  2.450000E-01  A1
H0165  11.66  0.000000E+00  Z
H0166  11.22  9.000000E-01  C1
H0167  7.36  9.000000E-01  C1
H0168  10.91  1.000000E+00  D1
H0170  39.54  0.000000E+00  Z
H0171  39.77  9.000000E-01  C1
H0174  -32.70  0.000000E+00  Z
H0176  -0.22  9.000000E-01  C1
H0179  4.07  1.000000E+00  D1
H0180  -2.95  9.000000E-01  C1
H0183  4.84  1.000000E+00  D1
H0184  -3.07  9.000000E-01  C1
H0185  -116.20  2.450000E-01  A1
H0187  -73.69  0.000000E+00  Z
H0188  42.37  0.000000E+00  Z
H0189  53.60  9.000000E-01  C1
H0190  16.42  9.000000E-01  C1
H0191  -105.09  2.450000E-01  A1
H0192  63.16  0.000000E+00  Z
H0195  -2.11  2.200000E-01  B1
H0196  4.85  1.000000E+00  D1
H0197  2.55  2.200000E-01  B1
H0198  1.40  0.000000E+00  Z
H0199  22.37  1.000000E+00  D1
H0200  5.43  2.200000E-01  B1
H0201  10.01  1.000000E+00  D1
H0202  68.49  1.000000E+00  D1
H0203  -74.68  2.450000E-01  A1
H0208  -85.22  2.450000E-01  A1
H0209  3.53  0.000000E+00  Z
H0211  0.64  9.000000E-01  C1
H0212  3.68  2.200000E-01  B1
H0213  3.84  1.000000E+00  D1
H0215  3.06  0.000000E+00  Z
H0216  -0.44  9.000000E-01  C1
H0217  2.74  0.000000E+00  Z
H0219  -67.83  2.450000E-01  A1
H0220  41.88  2.200000E-01  B1
H0221  50.09  1.000000E+00  D1
H0222  -12.09  9.000000E-01  C1
H0223  -2.55  9.000000E-01  C1
H0224  6.78  9.000000E-01  C1
H0225  7.49  0.000000E+00  Z
H0228  -69.53  2.450000E-01  A1
H0229  6.83  0.000000E+00  Z
H0230  -14.02  9.000000E-01  C1
H0232  -14.84  9.000000E-01  C1
H0233  6.02  9.000000E-01  C1
H0234  0.68  9.000000E-01  C1
H0235  -72.39  2.450000E-01  A1
H0236  14.19  1.000000E+00  D1