pcf
* control data
             restart          estimation
       761      2119         5         0         2         0
         5         2              single               point         1         0         0            noobsref
   2.000000E+01  -3.000000E+00   3.000000E-01   1.000000E-02        -7       999          lamforgive        noderforgive
   1.000000E+01   1.000000E+01   1.000000E-03         0         0
   1.000000E-01         1   1.100000E+00               noaui          nosenreuse        noboundscale
        20   1.000000E-02         3         3   1.000000E-02         3   0.000000E+00         1  -1.000000E+00
         0         0         0         0             jcosave          verboserec          jcosaveitn          reisaveitn          parsaveitn                    
* parameter groups
hk                      relative              1.0000000000E-02       0  switch                2.0000000000E+00       parabolic             1.0000000000E-05      5.0000000000E-01       smaller              
rcond                   relative              1.0000000000E-02       0  switch                2.0000000000E+00       parabolic             1.0000000000E-05      5.0000000000E-01       smaller              
welflux                 relative              1.0000000000E-02       0  switch                2.0000000000E+00       parabolic             1.0000000000E-05      5.0000000000E-01       smaller              
rch                     relative              1.0000000000E-02       0  switch                2.0000000000E+00       parabolic             1.0000000000E-05      5.0000000000E-01       smaller              
storage                 relative              1.0000000000E-02       0  switch                2.0000000000E+00       parabolic             1.0000000000E-05      5.0000000000E-01       smaller
* parameter data
rch_1                  none                   factor                1.0000000000E+00      9.0000000000E-01      1.1000000000E+00       rch                   1.0000000000E+00      0.0000000000E+00      1          
rch_2                  none                   factor                1.0000000000E+00      5.0000000000E-01      1.5000000000E+00       rch                   1.0000000000E+00      0.0000000000E+00      1          
rcond00                none                   factor                4.9043720000E+03      4.9043720000E+02      4.9043720000E+04       rcond                 1.0000000000E+00      0.0000000000E+00      1          
rcond01                none                   factor                4.9043720000E+03      4.9043720000E+02      4.9043720000E+04       rcond                 1.0000000000E+00      0.0000000000E+00      1          
rcond02                none                   factor                4.9043720000E+03      4.9043720000E+02      4.9043720000E+04       rcond                 1.0000000000E+00      0.0000000000E+00      1          
rcond03                none                   factor                4.9043720000E+03      4.9043720000E+02      4.9043720000E+04       rcond                 1.0000000000E+00      0.0000000000E+00      1          
rcond04                none                   factor                4.9043720000E+03      4.9043720000E+02      4.9043720000E+04       rcond                 1.0000000000E+00      0.0000000000E+00      1          
rcond05                none                   factor                4.9043720000E+03      4.9043720000E+02      4.9043720000E+04       rcond                 1.0000000000E+00      0.0000000000E+00      1          
rcond06                none                   factor                4.9043720000E+03      4.9043720000E+02      4.9043720000E+04       rcond                 1.0000000000E+00      0.0000000000E+00      1          
rcond07                none                   factor                4.9043720000E+03      4.9043720000E+02      4.9043720000E+04       rcond                 1.0000000000E+00      0.0000000000E+00      1          
rcond08                none                   factor                4.9043720000E+03      4.9043720000E+02      4.9043720000E+04       rcond                 1.0000000000E+00      0.0000000000E+00      1          
rcond09                none                   factor                4.9043720000E+03      4.9043720000E+02      4.9043720000E+04       rcond                 1.0000000000E+00      0.0000000000E+00      1          
rcond10                none                   factor                4.9043720000E+03      4.9043720000E+02      4.9043720000E+04       rcond                 1.0000000000E+00      0.0000000000E+00      1          
rcond11                none                   factor                4.9043720000E+03      4.9043720000E+02      4.9043720000E+04       rcond                 1.0000000000E+00      0.0000000000E+00      1          
rcond12                none                   factor                4.9043720000E+03      4.9043720000E+02      4.9043720000E+04       rcond                 1.0000000000E+00      0.0000000000E+00      1          
rcond13                none                   factor                4.9043720000E+03      4.9043720000E+02      4.9043720000E+04       rcond                 1.0000000000E+00      0.0000000000E+00      1          
rcond14                none                   factor                4.9043720000E+03      4.9043720000E+02      4.9043720000E+04       rcond                 1.0000000000E+00      0.0000000000E+00      1          
rcond15                none                   factor                4.9043720000E+03      4.9043720000E+02      4.9043720000E+04       rcond                 1.0000000000E+00      0.0000000000E+00      1          
rcond16                none                   factor                4.9043720000E+03      4.9043720000E+02      4.9043720000E+04       rcond                 1.0000000000E+00      0.0000000000E+00      1          
rcond17                none                   factor                4.9043720000E+03      4.9043720000E+02      4.9043720000E+04       rcond                 1.0000000000E+00      0.0000000000E+00      1          
rcond18                none                   factor                4.9043720000E+03      4.9043720000E+02      4.9043720000E+04       rcond                 1.0000000000E+00      0.0000000000E+00      1          
rcond19                none                   factor                4.9043720000E+03      4.9043720000E+02      4.9043720000E+04       rcond                 1.0000000000E+00      0.0000000000E+00      1          
rcond20                none                   factor                4.9043720000E+03      4.9043720000E+02      4.9043720000E+04       rcond                 1.0000000000E+00      0.0000000000E+00      1          
rcond21                none                   factor                4.9043720000E+03      4.9043720000E+02      4.9043720000E+04       rcond                 1.0000000000E+00      0.0000000000E+00      1          
rcond22                none                   factor                4.9043720000E+03      4.9043720000E+02      4.9043720000E+04       rcond                 1.0000000000E+00      0.0000000000E+00      1          
rcond23                none                   factor                4.9043720000E+03      4.9043720000E+02      4.9043720000E+04       rcond                 1.0000000000E+00      0.0000000000E+00      1          
rcond24                none                   factor                4.9043720000E+03      4.9043720000E+02      4.9043720000E+04       rcond                 1.0000000000E+00      0.0000000000E+00      1          
rcond25                none                   factor                4.9043720000E+03      4.9043720000E+02      4.9043720000E+04       rcond                 1.0000000000E+00      0.0000000000E+00      1          
rcond26                none                   factor                4.9043720000E+03      4.9043720000E+02      4.9043720000E+04       rcond                 1.0000000000E+00      0.0000000000E+00      1          
rcond27                none                   factor                4.9043720000E+03      4.9043720000E+02      4.9043720000E+04       rcond                 1.0000000000E+00      0.0000000000E+00      1          
rcond28                none                   factor                4.9043720000E+03      4.9043720000E+02      4.9043720000E+04       rcond                 1.0000000000E+00      0.0000000000E+00      1          
rcond29                none                   factor                4.9043720000E+03      4.9043720000E+02      4.9043720000E+04       rcond                 1.0000000000E+00      0.0000000000E+00      1          
rcond30                none                   factor                4.9043720000E+03      4.9043720000E+02      4.9043720000E+04       rcond                 1.0000000000E+00      0.0000000000E+00      1          
rcond31                none                   factor                4.9043720000E+03      4.9043720000E+02      4.9043720000E+04       rcond                 1.0000000000E+00      0.0000000000E+00      1          
rcond32                none                   factor                4.9043720000E+03      4.9043720000E+02      4.9043720000E+04       rcond                 1.0000000000E+00      0.0000000000E+00      1          
rcond33                none                   factor                4.9043720000E+03      4.9043720000E+02      4.9043720000E+04       rcond                 1.0000000000E+00      0.0000000000E+00      1          
rcond34                none                   factor                4.9043720000E+03      4.9043720000E+02      4.9043720000E+04       rcond                 1.0000000000E+00      0.0000000000E+00      1          
rcond35                none                   factor                4.9043720000E+03      4.9043720000E+02      4.9043720000E+04       rcond                 1.0000000000E+00      0.0000000000E+00      1          
rcond36                none                   factor                4.9043720000E+03      4.9043720000E+02      4.9043720000E+04       rcond                 1.0000000000E+00      0.0000000000E+00      1          
rcond37                none                   factor                4.9043720000E+03      4.9043720000E+02      4.9043720000E+04       rcond                 1.0000000000E+00      0.0000000000E+00      1          
rcond38                none                   factor                4.9043720000E+03      4.9043720000E+02      4.9043720000E+04       rcond                 1.0000000000E+00      0.0000000000E+00      1          
rcond39                none                   factor                4.9043720000E+03      4.9043720000E+02      4.9043720000E+04       rcond                 1.0000000000E+00      0.0000000000E+00      1          
ss                     none                   factor                1.0000000000E-05      1.0000000000E-06      1.0000000000E-04       storage               1.0000000000E+00      0.0000000000E+00      1          
sy                     none                   factor                9.9999990000E-03      9.9999990000E-04      9.9999990000E-02       storage               1.0000000000E+00      0.0000000000E+00      1          
wf1_1                  none                   factor                7.0848000000E+02      6.3763200000E+02      7.7932800000E+02       welflux               1.0000000000E+00      0.0000000000E+00      1          
wf2_1                  none                   factor                3.5424000000E+02      3.1881600000E+02      3.8966400000E+02       welflux               1.0000000000E+00      0.0000000000E+00      1          
wf3_1                  none                   factor                3.3696000000E+02      3.0326400000E+02      3.7065600000E+02       welflux               1.0000000000E+00      0.0000000000E+00      1          
wf4_1                  none                   factor                7.1712000000E+01      6.4540790000E+01      7.8883200000E+01       welflux               1.0000000000E+00      0.0000000000E+00      1          
wf5_1                  none                   factor                6.2208000000E+01      5.5987200000E+01      6.8428800000E+01       welflux               1.0000000000E+00      0.0000000000E+00      1          
wf6_1                  none                   factor                3.7152000000E+02      3.3436800000E+02      4.0867200000E+02       welflux               1.0000000000E+00      0.0000000000E+00      1          
wf1_2                  none                   factor                8.8560000000E+02      4.4280000000E+02      1.3284000000E+03       welflux               1.0000000000E+00      0.0000000000E+00      1          
wf2_2                  none                   factor                4.4280000000E+02      2.2140000000E+02      6.6420000000E+02       welflux               1.0000000000E+00      0.0000000000E+00      1          
wf3_2                  none                   factor                4.2120000000E+02      2.1060000000E+02      6.3180000000E+02       welflux               1.0000000000E+00      0.0000000000E+00      1          
wf4_2                  none                   factor                8.9640000000E+01      4.4820000000E+01      1.3446000000E+02       welflux               1.0000000000E+00      0.0000000000E+00      1          
wf5_2                  none                   factor                7.7760000000E+01      3.8880000000E+01      1.1664000000E+02       welflux               1.0000000000E+00      0.0000000000E+00      1          
wf6_2                  none                   factor                4.6440000000E+02      2.3220000000E+02      6.9660000000E+02       welflux               1.0000000000E+00      0.0000000000E+00      1          
hkr00c00               none                   factor                5.9475120000E+00      5.9475120000E-01      5.9475120000E+01       hk                    1.0000000000E+00      0.0000000000E+00      1          
hkr00c01               none                   factor                5.9475120000E+00      5.9475120000E-01      5.9475120000E+01       hk                    1.0000000000E+00      0.0000000000E+00      1          
hkr00c02               none                   factor                5.9475120000E+00      5.9475120000E-01      5.9475120000E+01       hk                    1.0000000000E+00      0.0000000000E+00      1          
hkr00c03               none                   factor                5.9475120000E+00      5.9475120000E-01      5.9475120000E+01       hk                    1.0000000000E+00      0.0000000000E+00      1          
hkr00c04               none                   factor                5.9475120000E+00      5.9475120000E-01      5.9475120000E+01       hk                    1.0000000000E+00      0.0000000000E+00      1          
hkr00c05               none                   factor                5.9475120000E+00      5.9475120000E-01      5.9475120000E+01       hk                    1.0000000000E+00      0.0000000000E+00      1          
hkr00c06               none                   factor                5.9475120000E+00      5.9475120000E-01      5.9475120000E+01       hk                    1.0000000000E+00      0.0000000000E+00      1          
hkr00c07               none                   factor                5.9475120000E+00      5.9475120000E-01      5.9475120000E+01       hk                    1.0000000000E+00      0.0000000000E+00      1          
hkr00c08               none                   factor                5.9475120000E+00      5.9475120000E-01      5.9475120000E+01       hk                    1.0000000000E+00      0.0000000000E+00      1          
hkr00c09               none                   factor                5.9475120000E+00      5.9475120000E-01      5.9475120000E+01       hk                    1.0000000000E+00      0.0000000000E+00      1          
hkr00c10               none                   factor                5.9475120000E+00      5.9475120000E-01      5.9475120000E+01       hk                    1.0000000000E+00      0.0000000000E+00      1          
hkr00c11               none                   factor                5.9475120000E+00      5.9475120000E-01      5.9475120000E+01       hk                    1.0000000000E+00      0.0000000000E+00      1          
hkr00c12               none                   factor                5.9475120000E+00      5.9475120000E-01      5.9475120000E+01       hk                    1.0000000000E+00      0.0000000000E+00      1          
hkr00c13               none                   factor                5.9475120000E+00      5.9475120000E-01      5.9475120000E+01       hk                    1.0000000000E+00      0.0000000000E+00      1          
hkr00c14               none                   factor                5.9475120000E+00      5.9475120000E-01      5.9475120000E+01       hk                    1.0000000000E+00      0.0000000000E+00      1          
hkr00c15               none                   factor                5.9475120000E+00      5.9475120000E-01      5.9475120000E+01       hk                    1.0000000000E+00      0.0000000000E+00      1          
hkr00c16               none                   factor                5.9475120000E+00      5.9475120000E-01      5.9475120000E+01       hk                    1.0000000000E+00      0.0000000000E+00      1          
hkr00c17               none                   factor                5.9475120000E+00      5.9475120000E-01      5.9475120000E+01       hk                    1.0000000000E+00      0.0000000000E+00      1          
hkr00c18               none                   factor                5.9475120000E+00      5.9475120000E-01      5.9475120000E+01       hk                    1.0000000000E+00      0.0000000000E+00      1          
hkr00c19               none                   factor                5.9475120000E+00      5.9475120000E-01      5.9475120000E+01       hk                    1.0000000000E+00      0.0000000000E+00      1          
hkr01c00               none                   factor                5.9475120000E+00      5.9475120000E-01      5.9475120000E+01       hk                    1.0000000000E+00      0.0000000000E+00      1          
hkr01c01               none                   factor                5.9475120000E+00      5.9475120000E-01      5.9475120000E+01       hk                    1.0000000000E+00      0.0000000000E+00      1          
hkr01c02               none                   factor                5.9475120000E+00      5.9475120000E-01      5.9475120000E+01       hk                    1.0000000000E+00      0.0000000000E+00      1          
hkr01c03               none                   factor                5.9475120000E+00      5.9475120000E-01      5.9475120000E+01       hk                    1.0000000000E+00      0.0000000000E+00      1          
hkr01c04               none                   factor                5.9475120000E+00      5.9475120000E-01      5.9475120000E+01       hk                    1.0000000000E+00      0.0000000000E+00      1          
hkr01c05               none                   factor                5.9475120000E+00      5.9475120000E-01      5.9475120000E+01       hk                    1.0000000000E+00      0.0000000000E+00      1          
hkr01c06               none                   factor                5.9475120000E+00      5.9475120000E-01      5.9475120000E+01       hk                    1.0000000000E+00      0.0000000000E+00      1          
hkr01c07               none                   factor                5.9475120000E+00      5.9475120000E-01      5.9475120000E+01       hk                    1.0000000000E+00      0.0000000000E+00      1          
hkr01c08               none                   factor                5.9475120000E+00      5.9475120000E-01      5.9475120000E+01       hk                    1.0000000000E+00      0.0000000000E+00      1          
hkr01c09               none                   factor                5.9475120000E+00      5.9475120000E-01      5.9475120000E+01       hk                    1.0000000000E+00      0.0000000000E+00      1          
hkr01c10               none                   factor                5.9475120000E+00      5.9475120000E-01      5.9475120000E+01       hk                    1.0000000000E+00      0.0000000000E+00      1          
hkr01c11               none                   factor                5.9475120000E+00      5.9475120000E-01      5.9475120000E+01       hk                    1.0000000000E+00      0.0000000000E+00      1          
hkr01c12               none                   factor                5.9475120000E+00      5.9475120000E-01      5.9475120000E+01       hk                    1.0000000000E+00      0.0000000000E+00      1          
hkr01c13               none                   factor                5.9475120000E+00      5.9475120000E-01      5.9475120000E+01       hk                    1.0000000000E+00      0.0000000000E+00      1          
hkr01c14               none                   factor                5.9475120000E+00      5.9475120000E-01      5.9475120000E+01       hk                    1.0000000000E+00      0.0000000000E+00      1          
hkr01c15               none                   factor                5.9475120000E+00      5.9475120000E-01      5.9475120000E+01       hk                    1.0000000000E+00      0.0000000000E+00      1          
hkr01c16               none                   factor                5.9475120000E+00      5.9475120000E-01      5.9475120000E+01       hk                    1.0000000000E+00      0.0000000000E+00      1          
hkr01c17               none                   factor                5.9475120000E+00      5.9475120000E-01      5.9475120000E+01       hk                    1.0000000000E+00      0.0000000000E+00      1          
hkr01c18               none                   factor                5.9475120000E+00      5.9475120000E-01      5.9475120000E+01       hk                    1.0000000000E+00      0.0000000000E+00      1          
hkr01c19               none                   factor                5.9475120000E+00      5.9475120000E-01      5.9475120000E+01       hk                    1.0000000000E+00      0.0000000000E+00      1          
hkr02c00               none                   factor                5.9475120000E+00      5.9475120000E-01      5.9475120000E+01       hk                    1.0000000000E+00      0.0000000000E+00      1          
hkr02c01               none                   factor                5.9475120000E+00      5.9475120000E-01      5.9475120000E+01       hk                    1.0000000000E+00      0.0000000000E+00      1          
hkr02c02               none                   factor                5.9475120000E+00      5.9475120000E-01      5.9475120000E+01       hk                    1.0000000000E+00      0.0000000000E+00      1          
hkr02c03               none                   factor                5.9475120000E+00      5.9475120000E-01      5.9475120000E+01       hk                    1.0000000000E+00      0.0000000000E+00      1          
hkr02c04               none                   factor                5.9475120000E+00      5.9475120000E-01      5.9475120000E+01       hk                    1.0000000000E+00      0.0000000000E+00      1          
hkr02c05               none                   factor                5.9475120000E+00      5.9475120000E-01      5.9475120000E+01       hk                    1.0000000000E+00      0.0000000000E+00      1          
hkr02c06               none                   factor                5.9475120000E+00      5.9475120000E-01      5.9475120000E+01       hk                    1.0000000000E+00      0.0000000000E+00      1          
hkr02c07               none                   factor                5.9475120000E+00      5.9475120000E-01      5.9475120000E+01       hk                    1.0000000000E+00      0.0000000000E+00      1          
hkr02c08               none                   factor                5.9475120000E+00      5.9475120000E-01      5.9475120000E+01       hk                    1.0000000000E+00      0.0000000000E+00      1          
hkr02c09               none                   factor                5.9475120000E+00      5.9475120000E-01      5.9475120000E+01       hk                    1.0000000000E+00      0.0000000000E+00      1          
hkr02c10               none                   factor                5.9475120000E+00      5.9475120000E-01      5.9475120000E+01       hk                    1.0000000000E+00      0.0000000000E+00      1          
hkr02c11               none                   factor                5.9475120000E+00      5.9475120000E-01      5.9475120000E+01       hk                    1.0000000000E+00      0.0000000000E+00      1          
hkr02c12               none                   factor                5.9475120000E+00      5.9475120000E-01      5.9475120000E+01       hk                    1.0000000000E+00      0.0000000000E+00      1          
hkr02c13               none                   factor                5.9475120000E+00      5.9475120000E-01      5.9475120000E+01       hk                    1.0000000000E+00      0.0000000000E+00      1          
hkr02c14               none                   factor                5.9475120000E+00      5.9475120000E-01      5.9475120000E+01       hk                    1.0000000000E+00      0.0000000000E+00      1          
hkr02c15               none                   factor                5.9475120000E+00      5.9475120000E-01      5.9475120000E+01       hk                    1.0000000000E+00      0.0000000000E+00      1          
hkr02c16               none                   factor                5.9475120000E+00      5.9475120000E-01      5.9475120000E+01       hk                    1.0000000000E+00      0.0000000000E+00      1          
hkr02c17               none                   factor                5.9475120000E+00      5.9475120000E-01      5.9475120000E+01       hk                    1.0000000000E+00      0.0000000000E+00      1          
hkr02c18               none                   factor                5.9475120000E+00      5.9475120000E-01      5.9475120000E+01       hk                    1.0000000000E+00      0.0000000000E+00      1          
hkr02c19               none                   factor                5.9475120000E+00      5.9475120000E-01      5.9475120000E+01       hk                    1.0000000000E+00      0.0000000000E+00      1          
hkr03c00               none                   factor                5.9475120000E+00      5.9475120000E-01      5.9475120000E+01       hk                    1.0000000000E+00      0.0000000000E+00      1          
hkr03c01               none                   factor                5.9475120000E+00      5.9475120000E-01      5.9475120000E+01       hk                    1.0000000000E+00      0.0000000000E+00      1          
hkr03c02               none                   factor                5.9475120000E+00      5.9475120000E-01      5.9475120000E+01       hk                    1.0000000000E+00      0.0000000000E+00      1          
hkr03c03               none                   factor                5.9475120000E+00      5.9475120000E-01      5.9475120000E+01       hk                    1.0000000000E+00      0.0000000000E+00      1          
hkr03c04               none                   factor                5.9475120000E+00      5.9475120000E-01      5.9475120000E+01       hk                    1.0000000000E+00      0.0000000000E+00      1          
hkr03c05               none                   factor                5.9475120000E+00      5.9475120000E-01      5.9475120000E+01       hk                    1.0000000000E+00      0.0000000000E+00      1          
hkr03c06               none                   factor                5.9475120000E+00      5.9475120000E-01      5.9475120000E+01       hk                    1.0000000000E+00      0.0000000000E+00      1          
hkr03c07               none                   factor                5.9475120000E+00      5.9475120000E-01      5.9475120000E+01       hk                    1.0000000000E+00      0.0000000000E+00      1          
hkr03c08               none                   factor                5.9475120000E+00      5.9475120000E-01      5.9475120000E+01       hk                    1.0000000000E+00      0.0000000000E+00      1          
hkr03c09               none                   factor                5.9475120000E+00      5.9475120000E-01      5.9475120000E+01       hk                    1.0000000000E+00      0.0000000000E+00      1          
hkr03c10               none                   factor                5.9475120000E+00      5.9475120000E-01      5.9475120000E+01       hk                    1.0000000000E+00      0.0000000000E+00      1          
hkr03c11               none                   factor                5.9475120000E+00      5.9475120000E-01      5.9475120000E+01       hk                    1.0000000000E+00      0.0000000000E+00      1          
hkr03c12               none                   factor                5.9475120000E+00      5.9475120000E-01      5.9475120000E+01       hk                    1.0000000000E+00      0.0000000000E+00      1          
hkr03c13               none                   factor                5.9475120000E+00      5.9475120000E-01      5.9475120000E+01       hk                    1.0000000000E+00      0.0000000000E+00      1          
hkr03c14               none                   factor                5.9475120000E+00      5.9475120000E-01      5.9475120000E+01       hk                    1.0000000000E+00      0.0000000000E+00      1          
hkr03c15               none                   factor                5.9475120000E+00      5.9475120000E-01      5.9475120000E+01       hk                    1.0000000000E+00      0.0000000000E+00      1          