pcf
* control data
             restart      estimation
       761      2119         5       0         3         0
         5         2              single               point         1         0         0            noobsref
   2.000000E+01  -3.000000E+00   3.000000E-01   1.000000E-02        -7       999          lamforgive        noderforgive
   1.000000E+01   1.000000E+01   1.000000E-03         0         0
   1.000000E-01         1   1.100000E+00               noaui          nosenreuse        noboundscale
        20   1.000000E-02         3         3   1.000000E-02         3   0.000000E+00         1  -1.000000E+00
         0         0         0         0             jcosave          verboserec          jcosaveitn          reisaveitn          parsaveitn      
* parameter groups
                  hk              relative    1.000000E-02  0                switch    2.000000E+00             parabolic    1.000000E-05    5.000000E-01               smaller
               rcond              relative    1.000000E-02  0                switch    2.000000E+00             parabolic    1.000000E-05    5.000000E-01               smaller
             welflux              relative    1.000000E-02  0                switch    2.000000E+00             parabolic    1.000000E-05    5.000000E-01               smaller
                 rch              relative    1.000000E-02  0                switch    2.000000E+00             parabolic    1.000000E-05    5.000000E-01               smaller
             storage              relative    1.000000E-02  0                switch    2.000000E+00             parabolic    1.000000E-05    5.000000E-01               smaller
* parameter data
rch_1                      none                factor    1.000000E+00    9.000000E-01    1.100000E+00                   rch    1.000000E+00    0.000000E+00          1
rch_2                      none                factor    1.000000E+00    5.000000E-01    1.500000E+00                   rch    1.000000E+00    0.000000E+00          1
rcond00                    none                factor    4.904372E+03    4.904372E+02    4.904372E+04                 rcond    1.000000E+00    0.000000E+00          1
rcond01                    none                factor    4.904372E+03    4.904372E+02    4.904372E+04                 rcond    1.000000E+00    0.000000E+00          1
rcond02                    none                factor    4.904372E+03    4.904372E+02    4.904372E+04                 rcond    1.000000E+00    0.000000E+00          1
rcond03                    none                factor    4.904372E+03    4.904372E+02    4.904372E+04                 rcond    1.000000E+00    0.000000E+00          1
rcond04                    none                factor    4.904372E+03    4.904372E+02    4.904372E+04                 rcond    1.000000E+00    0.000000E+00          1
rcond05                    none                factor    4.904372E+03    4.904372E+02    4.904372E+04                 rcond    1.000000E+00    0.000000E+00          1
rcond06                    none                factor    4.904372E+03    4.904372E+02    4.904372E+04                 rcond    1.000000E+00    0.000000E+00          1
rcond07                    none                factor    4.904372E+03    4.904372E+02    4.904372E+04                 rcond    1.000000E+00    0.000000E+00          1
rcond08                    none                factor    4.904372E+03    4.904372E+02    4.904372E+04                 rcond    1.000000E+00    0.000000E+00          1
rcond09                    none                factor    4.904372E+03    4.904372E+02    4.904372E+04                 rcond    1.000000E+00    0.000000E+00          1
rcond10                    none                factor    4.904372E+03    4.904372E+02    4.904372E+04                 rcond    1.000000E+00    0.000000E+00          1
rcond11                    none                factor    4.904372E+03    4.904372E+02    4.904372E+04                 rcond    1.000000E+00    0.000000E+00          1
rcond12                    none                factor    4.904372E+03    4.904372E+02    4.904372E+04                 rcond    1.000000E+00    0.000000E+00          1
rcond13                    none                factor    4.904372E+03    4.904372E+02    4.904372E+04                 rcond    1.000000E+00    0.000000E+00          1
rcond14                    none                factor    4.904372E+03    4.904372E+02    4.904372E+04                 rcond    1.000000E+00    0.000000E+00          1
rcond15                    none                factor    4.904372E+03    4.904372E+02    4.904372E+04                 rcond    1.000000E+00    0.000000E+00          1
rcond16                    none                factor    4.904372E+03    4.904372E+02    4.904372E+04                 rcond    1.000000E+00    0.000000E+00          1
rcond17                    none                factor    4.904372E+03    4.904372E+02    4.904372E+04                 rcond    1.000000E+00    0.000000E+00          1
rcond18                    none                factor    4.904372E+03    4.904372E+02    4.904372E+04                 rcond    1.000000E+00    0.000000E+00          1
rcond19                    none                factor    4.904372E+03    4.904372E+02    4.904372E+04                 rcond    1.000000E+00    0.000000E+00          1
rcond20                    none                factor    4.904372E+03    4.904372E+02    4.904372E+04                 rcond    1.000000E+00    0.000000E+00          1
rcond21                    none                factor    4.904372E+03    4.904372E+02    4.904372E+04                 rcond    1.000000E+00    0.000000E+00          1
rcond22                    none                factor    4.904372E+03    4.904372E+02    4.904372E+04                 rcond    1.000000E+00    0.000000E+00          1
rcond23                    none                factor    4.904372E+03    4.904372E+02    4.904372E+04                 rcond    1.000000E+00    0.000000E+00          1
rcond24                    none                factor    4.904372E+03    4.904372E+02    4.904372E+04                 rcond    1.000000E+00    0.000000E+00          1
rcond25                    none                factor    4.904372E+03    4.904372E+02    4.904372E+04                 rcond    1.000000E+00    0.000000E+00          1
rcond26                    none                factor    4.904372E+03    4.904372E+02    4.904372E+04                 rcond    1.000000E+00    0.000000E+00          1
rcond27                    none                factor    4.904372E+03    4.904372E+02    4.904372E+04                 rcond    1.000000E+00    0.000000E+00          1
rcond28                    none                factor    4.904372E+03    4.904372E+02    4.904372E+04                 rcond    1.000000E+00    0.000000E+00          1
rcond29                    none                factor    4.904372E+03    4.904372E+02    4.904372E+04                 rcond    1.000000E+00    0.000000E+00          1
rcond30                    none                factor    4.904372E+03    4.904372E+02    4.904372E+04                 rcond    1.000000E+00    0.000000E+00          1
rcond31                    none                factor    4.904372E+03    4.904372E+02    4.904372E+04                 rcond    1.000000E+00    0.000000E+00          1
rcond32                    none                factor    4.904372E+03    4.904372E+02    4.904372E+04                 rcond    1.000000E+00    0.000000E+00          1
rcond33                    none                factor    4.904372E+03    4.904372E+02    4.904372E+04                 rcond    1.000000E+00    0.000000E+00          1
rcond34                    none                factor    4.904372E+03    4.904372E+02    4.904372E+04                 rcond    1.000000E+00    0.000000E+00          1
rcond35                    none                factor    4.904372E+03    4.904372E+02    4.904372E+04                 rcond    1.000000E+00    0.000000E+00          1
rcond36                    none                factor    4.904372E+03    4.904372E+02    4.904372E+04                 rcond    1.000000E+00    0.000000E+00          1
rcond37                    none                factor    4.904372E+03    4.904372E+02    4.904372E+04                 rcond    1.000000E+00    0.000000E+00          1
rcond38                    none                factor    4.904372E+03    4.904372E+02    4.904372E+04                 rcond    1.000000E+00    0.000000E+00          1
rcond39                    none                factor    4.904372E+03    4.904372E+02    4.904372E+04                 rcond    1.000000E+00    0.000000E+00          1
ss                         none                factor    1.000000E-05    1.000000E-06    1.000000E-04               storage    1.000000E+00    0.000000E+00          1
sy                         none                factor    9.999999E-03    9.999999E-04    9.999999E-02               storage    1.000000E+00    0.000000E+00          1
wf1_1                      none                factor    7.084800E+02    6.376320E+02    7.793280E+02               welflux    1.000000E+00    0.000000E+00          1
wf2_1                      none                factor    3.542400E+02    3.188160E+02    3.896640E+02               welflux    1.000000E+00    0.000000E+00          1
wf3_1                      none                factor    3.369600E+02    3.032640E+02    3.706560E+02               welflux    1.000000E+00    0.000000E+00          1
wf4_1                      none                factor    7.171200E+01    6.454079E+01    7.888320E+01               welflux    1.000000E+00    0.000000E+00          1
wf5_1                      none                factor    6.220800E+01    5.598720E+01    6.842880E+01               welflux    1.000000E+00    0.000000E+00          1
wf6_1                      none                factor    3.715200E+02    3.343680E+02    4.086720E+02               welflux    1.000000E+00    0.000000E+00          1
wf1_2                      none                factor    8.856000E+02    4.428000E+02    1.328400E+03               welflux    1.000000E+00    0.000000E+00          1
wf2_2                      none                factor    4.428000E+02    2.214000E+02    6.642000E+02               welflux    1.000000E+00    0.000000E+00          1
wf3_2                      none                factor    4.212000E+02    2.106000E+02    6.318000E+02               welflux    1.000000E+00    0.000000E+00          1
wf4_2                      none                factor    8.964000E+01    4.482000E+01    1.344600E+02               welflux    1.000000E+00    0.000000E+00          1
wf5_2                      none                factor    7.776000E+01    3.888000E+01    1.166400E+02               welflux    1.000000E+00    0.000000E+00          1
wf6_2                      none                factor    4.644000E+02    2.322000E+02    6.966000E+02               welflux    1.000000E+00    0.000000E+00          1
hkr00c00                   none                factor    5.947512E+00    5.947512E-01    5.947512E+01                    hk    1.000000E+00    0.000000E+00          1
hkr00c01                   none                factor    5.947512E+00    5.947512E-01    5.947512E+01                    hk    1.000000E+00    0.000000E+00          1
hkr00c02                   none                factor    5.947512E+00    5.947512E-01    5.947512E+01                    hk    1.000000E+00    0.000000E+00          1
hkr00c03                   none                factor    5.947512E+00    5.947512E-01    5.947512E+01                    hk    1.000000E+00    0.000000E+00          1
hkr00c04                   none                factor    5.947512E+00    5.947512E-01    5.947512E+01                    hk    1.000000E+00    0.000000E+00          1
hkr00c05                   none                factor    5.947512E+00    5.947512E-01    5.947512E+01                    hk    1.000000E+00    0.000000E+00          1
hkr00c06                   none                factor    5.947512E+00    5.947512E-01    5.947512E+01                    hk    1.000000E+00    0.000000E+00          1
hkr00c07                   none                factor    5.947512E+00    5.947512E-01    5.947512E+01                    hk    1.000000E+00    0.000000E+00          1
hkr00c08                   none                factor    5.947512E+00    5.947512E-01    5.947512E+01                    hk    1.000000E+00    0.000000E+00          1
hkr00c09                   none                factor    5.947512E+00    5.947512E-01    5.947512E+01                    hk    1.000000E+00    0.000000E+00          1
hkr00c10                   none                factor    5.947512E+00    5.947512E-01    5.947512E+01                    hk    1.000000E+00    0.000000E+00          1
hkr00c11                   none                factor    5.947512E+00    5.947512E-01    5.947512E+01                    hk    1.000000E+00    0.000000E+00          1
hkr00c12                   none                factor    5.947512E+00    5.947512E-01    5.947512E+01                    hk    1.000000E+00    0.000000E+00          1
hkr00c13                   none                factor    5.947512E+00    5.947512E-01    5.947512E+01                    hk    1.000000E+00    0.000000E+00          1
hkr00c14                   none                factor    5.947512E+00    5.947512E-01    5.947512E+01                    hk    1.000000E+00    0.000000E+00          1
hkr00c15                   none                factor    5.947512E+00    5.947512E-01    5.947512E+01                    hk    1.000000E+00    0.000000E+00          1
hkr00c16                   none                factor    5.947512E+00    5.947512E-01    5.947512E+01                    hk    1.000000E+00    0.000000E+00          1
hkr00c17                   none                factor    5.947512E+00    5.947512E-01    5.947512E+01                    hk    1.000000E+00    0.000000E+00          1
hkr00c18                   none                factor    5.947512E+00    5.947512E-01    5.947512E+01                    hk    1.000000E+00    0.000000E+00          1
hkr00c19                   none                factor    5.947512E+00    5.947512E-01    5.947512E+01                    hk    1.000000E+00    0.000000E+00          1
hkr01c00                   none                factor    5.947512E+00    5.947512E-01    5.947512E+01                    hk    1.000000E+00    0.000000E+00          1
hkr01c01                   none                factor    5.947512E+00    5.947512E-01    5.947512E+01                    hk    1.000000E+00    0.000000E+00          1
hkr01c02                   none                factor    5.947512E+00    5.947512E-01    5.947512E+01                    hk    1.000000E+00    0.000000E+00          1
hkr01c03                   none                factor    5.947512E+00    5.947512E-01    5.947512E+01                    hk    1.000000E+00    0.000000E+00          1
hkr01c04                   none                factor    5.947512E+00    5.947512E-01    5.947512E+01                    hk    1.000000E+00    0.000000E+00          1
hkr01c05                   none                factor    5.947512E+00    5.947512E-01    5.947512E+01                    hk    1.000000E+00    0.000000E+00          1
hkr01c06                   none                factor    5.947512E+00    5.947512E-01    5.947512E+01                    hk    1.000000E+00    0.000000E+00          1
hkr01c07                   none                factor    5.947512E+00    5.947512E-01    5.947512E+01                    hk    1.000000E+00    0.000000E+00          1
hkr01c08                   none                factor    5.947512E+00    5.947512E-01    5.947512E+01                    hk    1.000000E+00    0.000000E+00          1
hkr01c09                   none                factor    5.947512E+00    5.947512E-01    5.947512E+01                    hk    1.000000E+00    0.000000E+00          1
hkr01c10                   none                factor    5.947512E+00    5.947512E-01    5.947512E+01                    hk    1.000000E+00    0.000000E+00          1
hkr01c11                   none                factor    5.947512E+00    5.947512E-01    5.947512E+01                    hk    1.000000E+00    0.000000E+00          1
hkr01c12                   none                factor    5.947512E+00    5.947512E-01    5.947512E+01                    hk    1.000000E+00    0.000000E+00          1
hkr01c13                   none                factor    5.947512E+00    5.947512E-01    5.947512E+01                    hk    1.000000E+00    0.000000E+00          1
hkr01c14                   none                factor    5.947512E+00    5.947512E-01    5.947512E+01                    hk    1.000000E+00    0.000000E+00          1
hkr01c15                   none                factor    5.947512E+00    5.947512E-01    5.947512E+01                    hk    1.000000E+00    0.000000E+00          1
hkr01c16                   none                factor    5.947512E+00    5.947512E-01    5.947512E+01                    hk    1.000000E+00    0.000000E+00          1
hkr01c17                   none                factor    5.947512E+00    5.947512E-01    5.947512E+01                    hk    1.000000E+00    0.000000E+00          1
hkr01c18                   none                factor    5.947512E+00    5.947512E-01    5.947512E+01                    hk    1.000000E+00    0.000000E+00          1
hkr01c19                   none                factor    5.947512E+00    5.947512E-01    5.947512E+01                    hk    1.000000E+00    0.000000E+00          1
hkr02c00                   none                factor    5.947512E+00    5.947512E-01    5.947512E+01                    hk    1.000000E+00    0.000000E+00          1
hkr02c01                   none                factor    5.947512E+00    5.947512E-01    5.947512E+01                    hk    1.000000E+00    0.000000E+00          1
hkr02c02                   none                factor    5.947512E+00    5.947512E-01    5.947512E+01                    hk    1.000000E+00    0.000000E+00          1
hkr02c03                   none                factor    5.947512E+00    5.947512E-01    5.947512E+01                    hk    1.000000E+00    0.000000E+00          1
hkr02c04                   none                factor    5.947512E+00    5.947512E-01    5.947512E+01                    hk    1.000000E+00    0.000000E+00          1
hkr02c05                   none                factor    5.947512E+00    5.947512E-01    5.947512E+01                    hk    1.000000E+00    0.000000E+00          1
hkr02c06                   none                factor    5.947512E+00    5.947512E-01    5.947512E+01                    hk    1.000000E+00    0.000000E+00          1
hkr02c07                   none                factor    5.947512E+00    5.947512E-01    5.947512E+01                    hk    1.000000E+00    0.000000E+00          1
hkr02c08                   none                factor    5.947512E+00    5.947512E-01    5.947512E+01                    hk    1.000000E+00    0.000000E+00          1
hkr02c09                   none                factor    5.947512E+00    5.947512E-01    5.947512E+01                    hk    1.000000E+00    0.000000E+00          1
hkr02c10                   none                factor    5.947512E+00    5.947512E-01    5.947512E+01                    hk    1.000000E+00    0.000000E+00          1
hkr02c11                   none                factor    5.947512E+00    5.947512E-01    5.947512E+01                    hk    1.000000E+00    0.000000E+00          1
hkr02c12                   none                factor    5.947512E+00    5.947512E-01    5.947512E+01                    hk    1.000000E+00    0.000000E+00          1
hkr02c13                   none                factor    5.947512E+00    5.947512E-01    5.947512E+01                    hk    1.000000E+00    0.000000E+00          1
hkr02c14                   none                factor    5.947512E+00    5.947512E-01    5.947512E+01                    hk    1.000000E+00    0.000000E+00          1
hkr02c15                   none                factor    5.947512E+00    5.947512E-01    5.947512E+01                    hk    1.000000E+00    0.000000E+00          1
hkr02c16                   none                factor    5.947512E+00    5.947512E-01    5.947512E+01                    hk    1.000000E+00    0.000000E+00          1
hkr02c17                   none                factor    5.947512E+00    5.947512E-01    5.947512E+01                    hk    1.000000E+00    0.000000E+00          1
hkr02c18                   none                factor    5.947512E+00    5.947512E-01    5.947512E+01                    hk    1.000000E+00    0.000000E+00          1
hkr02c19                   none                factor    5.947512E+00    5.947512E-01    5.947512E+01                    hk    1.000000E+00    0.000000E+00          1
hkr03c00                   none                factor    5.947512E+00    5.947512E-01    5.947512E+01                    hk    1.000000E+00    0.000000E+00          1
hkr03c01                   none                factor    5.947512E+00    5.947512E-01    5.947512E+01                    hk    1.000000E+00    0.000000E+00          1
hkr03c02                   none                factor    5.947512E+00    5.947512E-01    5.947512E+01                    hk    1.000000E+00    0.000000E+00          1
hkr03c03                   none                factor    5.947512E+00    5.947512E-01    5.947512E+01                    hk    1.000000E+00    0.000000E+00          1
hkr03c04                   none                factor    5.947512E+00    5.947512E-01    5.947512E+01                    hk    1.000000E+00    0.000000E+00          1
hkr03c05                   none                factor    5.947512E+00    5.947512E-01    5.947512E+01                    hk    1.000000E+00    0.000000E+00          1
hkr03c06                   none                factor    5.947512E+00    5.947512E-01    5.947512E+01                    hk    1.000000E+00    0.000000E+00          1
hkr03c07                   none                factor    5.947512E+00    5.947512E-01    5.947512E+01                    hk    1.000000E+00    0.000000E+00          1
hkr03c08                   none                factor    5.947512E+00    5.947512E-01    5.947512E+01                    hk    1.000000E+00    0.000000E+00          1
hkr03c09                   none                factor    5.947512E+00    5.947512E-01    5.947512E+01                    hk    1.000000E+00    0.000000E+00          1
hkr03c10                   none                factor    5.947512E+00    5.947512E-01    5.947512E+01                    hk    1.000000E+00    0.000000E+00          1
hkr03c11                   none                factor    5.947512E+00    5.947512E-01    5.947512E+01                    hk    1.000000E+00    0.000000E+00          1
hkr03c12                   none                factor    5.947512E+00    5.947512E-01    5.947512E+01                    hk    1.000000E+00    0.000000E+00          1
hkr03c13                   none                factor    5.947512E+00    5.947512E-01    5.947512E+01                    hk    1.000000E+00    0.000000E+00          1
hkr03c14                   none                factor    5.947512E+00    5.947512E-01    5.947512E+01                    hk    1.000000E+00    0.000000E+00          1
hkr03c15                   none                factor    5.947512E+00    5.947512E-01    5.947512E+01                    hk    1.000000E+00    0.000000E+00          1
hkr03c16                   none                factor    5.947512E+00    5.947512E-01    5.947512E+01                    hk    1.000000E+00    0.000000E+00          1
hkr03c17                   none                factor    5.947512E+00    5.947512E-01    5.947512E+01                    hk    1.000000E+00    0.000000E+00          1
hkr03c18                   none                factor    5.947512E+00    5.947512E-01    5.947512E+01                    hk    1.000000E+00    0.000000E+00          1
hkr03c19                   none                factor    5.947512E+00    5.947512E-01    5.947512E+01                    hk    1.000000E+00    0.000000E+00          1
hkr04c00                   none                factor    5.947512E+00    5.947512E-01    5.947512E+01                    hk    1.000000E+00    0.000000E+00          1
hkr04c01                   none                factor    5.947512E+00    5.947512E-01    5.947512E+01                    hk    1.000000E+00    0.000000E+00          1
hkr04c02                   none                factor    5.947512E+00    5.947512E-01    5.947512E+01                    hk    1.000000E+00    0.000000E+00          1
hkr04c03                   none                factor    5.947512E+00    5.947512E-01    5.947512E+01                    hk    1.000000E+00    0.000000E+00          1
hkr04c04                   none                factor    5.947512E+00    5.947512E-01    5.947512E+01                    hk    1.000000E+00    0.000000E+00          1
hkr04c05                   none                factor    5.947512E+00    5.947512E-01    5.947512E+01                    hk    1.000000E+00    0.000000E+00          1
hkr04c06                   none                factor    5.947512E+00    5.947512E-01    5.947512E+01                    hk    1.000000E+00    0.000000E+00          1
hkr04c07                   none                factor    5.947512E+00    5.947512E-01    5.947512E+01                    hk    1.000000E+00    0.000000E+00          1
hkr04c08                   none                factor    5.947512E+00    5.947512E-01    5.947512E+01                    hk    1.000000E+00    0.000000E+00          1
hkr04c09                   none                factor    5.947512E+00    5.947512E-01    5.947512E+01                    hk    1.000000E+00    0.000000E+00          1
hkr04c10                   none                factor    5.947512E+00    5.947512E-01    5.947512E+01                    hk    1.000000E+00    0.000000E+00          1
hkr04c11                   none                factor    5.947512E+00    5.947512E-01    5.947512E+01                    hk    1.000000E+00    0.000000E+00          1
hkr04c12                   none                factor    5.947512E+00    5.947512E-01    5.947512E+01                    hk    1.000000E+00    0.000000E+00          1
hkr04c13                   none                factor    5.947512E+00    5.947512E-01    5.947512E+01                    hk    1.000000E+00    0.000000E+00          1
hkr04c14                   none                factor    5.947512E+00    5.947512E-01    5.947512E+01                    hk    1.000000E+00    0.000000E+00          1
hkr04c15                   none                factor    5.947512E+00    5.947512E-01    5.947512E+01                    hk    1.000000E+00    0.000000E+00          1
hkr04c16                   none                factor    5.947512E+00    5.947512E-01    5.947512E+01                    hk    1.000000E+00    0.000000E+00          1
hkr04c17                   none                factor    5.947512E+00    5.947512E-01    5.947512E+01                    hk    1.000000E+00    0.000000E+00          1
hkr04c18                   none                factor    5.947512E+00    5.947512E-01    5.947512E+01                    hk    1.000000E+00    0.000000E+00          1
hkr04c19                   none                factor    5.947512E+00    5.947512E-01    5.947512E+01                    hk    1.000000E+00    0.000000E+00          1
hkr05c00                   none                factor    5.947512E+00    5.947512E-01    5.947512E+01                    hk    1.000000E+00    0.000000E+00          1
hkr05c01                   none                factor    5.947512E+00    5.947512E-01    5.947512E+01                    hk    1.000000E+00    0.000000E+00          1
hkr05c02                   none                factor    5.947512E+00    5.947512E-01    5.947512E+01                    hk    1.000000E+00    0.000000E+00          1
hkr05c03                   none                factor    5.947512E+00    5.947512E-01    5.947512E+01                    hk    1.000000E+00    0.000000E+00          1
hkr05c04                   none                factor    5.947512E+00    5.947512E-01    5.947512E+01                    hk    1.000000E+00    0.000000E+00          1
hkr05c05                   none                factor    5.947512E+00    5.947512E-01    5.947512E+01                    hk    1.000000E+00    0.000000E+00          1
hkr05c06                   none                factor    5.947512E+00    5.947512E-01    5.947512E+01                    hk    1.000000E+00    0.000000E+00          1
hkr05c07                   none                factor    5.947512E+00    5.947512E-01    5.947512E+01                    hk    1.000000E+00    0.000000E+00          1
hkr05c08                   none                factor    5.947512E+00    5.947512E-01    5.947512E+01                    hk    1.000000E+00    0.000000E+00          1
hkr05c09                   none                factor    5.947512E+00    5.947512E-01    5.947512E+01                    hk    1.000000E+00    0.000000E+00          1
hkr05c10                   none                factor    5.947512E+00    5.947512E-01    5.947512E+01                    hk    1.000000E+00    0.000000E+00          1
hkr05c11                   none                factor    5.947512E+00    5.947512E-01    5.947512E+01                    hk    1.000000E+00    0.000000E+00          1
hkr05c12                   none                factor    5.947512E+00    5.947512E-01    5.947512E+01                    hk    1.000000E+00    0.000000E+00          1