pcf
* control data
             restart          estimation
       761      2403         5         0         2         0
         5         2              single               point         1         0         0            noobsref
   2.000000E+01  -3.000000E+00   3.000000E-01   1.000000E-02        -7       999          lamforgive        noderforgive
   1.000000E+01   1.000000E+01   1.000000E-03         0         0
   1.000000E-01         1   1.100000E+00               noaui          nosenreuse        noboundscale
         0   1.000000E-02         3         3   1.000000E-02         3   0.000000E+00         1  -1.000000E+00
         0         0         0         0             jcosave          verboserec          jcosaveitn          reisaveitn          parsaveitn        noparsaverun
* singular value decomposition
1
761    1.000000E-06
1 1 1
* parameter groups
                   hk              relative    1.000000E-02  0                switch    2.000000E+00             parabolic    1.000000E-05    5.000000E-01               smaller
                rcond              relative    1.000000E-02  0                switch    2.000000E+00             parabolic    1.000000E-05    5.000000E-01               smaller
              welflux              relative    1.000000E-02  0                switch    2.000000E+00             parabolic    1.000000E-05    5.000000E-01               smaller
                  rch              relative    1.000000E-02  0                switch    2.000000E+00             parabolic    1.000000E-05    5.000000E-01               smaller
              storage              relative    1.000000E-02  0                switch    2.000000E+00             parabolic    1.000000E-05    5.000000E-01               smaller
* parameter data
                rch_1                   log                factor    1.000000E+00    9.000000E-01    1.100000E+00                   rch    1.000000E+00    0.000000E+00          1
                rch_2                   log                factor    1.000000E+00    5.000000E-01    1.500000E+00                   rch    1.000000E+00    0.000000E+00          1
              rcond00                   log                factor    4.500000E+03    4.500000E+02    4.500000E+04                 rcond    1.000000E+00    0.000000E+00          1
              rcond01                   log                factor    4.500000E+03    4.500000E+02    4.500000E+04                 rcond    1.000000E+00    0.000000E+00          1
              rcond02                   log                factor    4.500000E+03    4.500000E+02    4.500000E+04                 rcond    1.000000E+00    0.000000E+00          1
              rcond03                   log                factor    4.500000E+03    4.500000E+02    4.500000E+04                 rcond    1.000000E+00    0.000000E+00          1
              rcond04                   log                factor    4.500000E+03    4.500000E+02    4.500000E+04                 rcond    1.000000E+00    0.000000E+00          1
              rcond05                   log                factor    4.500000E+03    4.500000E+02    4.500000E+04                 rcond    1.000000E+00    0.000000E+00          1
              rcond06                   log                factor    4.500000E+03    4.500000E+02    4.500000E+04                 rcond    1.000000E+00    0.000000E+00          1
              rcond07                   log                factor    4.500000E+03    4.500000E+02    4.500000E+04                 rcond    1.000000E+00    0.000000E+00          1
              rcond08                   log                factor    4.500000E+03    4.500000E+02    4.500000E+04                 rcond    1.000000E+00    0.000000E+00          1
              rcond09                   log                factor    4.500000E+03    4.500000E+02    4.500000E+04                 rcond    1.000000E+00    0.000000E+00          1
              rcond10                   log                factor    4.500000E+03    4.500000E+02    4.500000E+04                 rcond    1.000000E+00    0.000000E+00          1
              rcond11                   log                factor    4.500000E+03    4.500000E+02    4.500000E+04                 rcond    1.000000E+00    0.000000E+00          1
              rcond12                   log                factor    4.500000E+03    4.500000E+02    4.500000E+04                 rcond    1.000000E+00    0.000000E+00          1
              rcond13                   log                factor    4.500000E+03    4.500000E+02    4.500000E+04                 rcond    1.000000E+00    0.000000E+00          1
              rcond14                   log                factor    4.500000E+03    4.500000E+02    4.500000E+04                 rcond    1.000000E+00    0.000000E+00          1
              rcond15                   log                factor    4.500000E+03    4.500000E+02    4.500000E+04                 rcond    1.000000E+00    0.000000E+00          1
              rcond16                   log                factor    4.500000E+03    4.500000E+02    4.500000E+04                 rcond    1.000000E+00    0.000000E+00          1
              rcond17                   log                factor    4.500000E+03    4.500000E+02    4.500000E+04                 rcond    1.000000E+00    0.000000E+00          1
              rcond18                   log                factor    4.500000E+03    4.500000E+02    4.500000E+04                 rcond    1.000000E+00    0.000000E+00          1
              rcond19                   log                factor    4.500000E+03    4.500000E+02    4.500000E+04                 rcond    1.000000E+00    0.000000E+00          1
              rcond20                   log                factor    4.500000E+03    4.500000E+02    4.500000E+04                 rcond    1.000000E+00    0.000000E+00          1
              rcond21                   log                factor    4.500000E+03    4.500000E+02    4.500000E+04                 rcond    1.000000E+00    0.000000E+00          1
              rcond22                   log                factor    4.500000E+03    4.500000E+02    4.500000E+04                 rcond    1.000000E+00    0.000000E+00          1
              rcond23                   log                factor    4.500000E+03    4.500000E+02    4.500000E+04                 rcond    1.000000E+00    0.000000E+00          1
              rcond24                   log                factor    4.500000E+03    4.500000E+02    4.500000E+04                 rcond    1.000000E+00    0.000000E+00          1
              rcond25                   log                factor    4.500000E+03    4.500000E+02    4.500000E+04                 rcond    1.000000E+00    0.000000E+00          1
              rcond26                   log                factor    4.500000E+03    4.500000E+02    4.500000E+04                 rcond    1.000000E+00    0.000000E+00          1
              rcond27                   log                factor    4.500000E+03    4.500000E+02    4.500000E+04                 rcond    1.000000E+00    0.000000E+00          1
              rcond28                   log                factor    4.500000E+03    4.500000E+02    4.500000E+04                 rcond    1.000000E+00    0.000000E+00          1
              rcond29                   log                factor    4.500000E+03    4.500000E+02    4.500000E+04                 rcond    1.000000E+00    0.000000E+00          1
              rcond30                   log                factor    4.500000E+03    4.500000E+02    4.500000E+04                 rcond    1.000000E+00    0.000000E+00          1
              rcond31                   log                factor    4.500000E+03    4.500000E+02    4.500000E+04                 rcond    1.000000E+00    0.000000E+00          1
              rcond32                   log                factor    4.500000E+03    4.500000E+02    4.500000E+04                 rcond    1.000000E+00    0.000000E+00          1
              rcond33                   log                factor    4.500000E+03    4.500000E+02    4.500000E+04                 rcond    1.000000E+00    0.000000E+00          1
              rcond34                   log                factor    4.500000E+03    4.500000E+02    4.500000E+04                 rcond    1.000000E+00    0.000000E+00          1
              rcond35                   log                factor    4.500000E+03    4.500000E+02    4.500000E+04                 rcond    1.000000E+00    0.000000E+00          1
              rcond36                   log                factor    4.500000E+03    4.500000E+02    4.500000E+04                 rcond    1.000000E+00    0.000000E+00          1
              rcond37                   log                factor    4.500000E+03    4.500000E+02    4.500000E+04                 rcond    1.000000E+00    0.000000E+00          1
              rcond38                   log                factor    4.500000E+03    4.500000E+02    4.500000E+04                 rcond    1.000000E+00    0.000000E+00          1
              rcond39                   log                factor    4.500000E+03    4.500000E+02    4.500000E+04                 rcond    1.000000E+00    0.000000E+00          1
                   ss                   log                factor    1.000000E-03    1.000000E-04    1.000000E-02               storage    1.000000E+00    0.000000E+00          1
                   sy                   log                factor    1.000000E-01    1.000000E-02    2.500000E-01               storage    1.000000E+00    0.000000E+00          1
                wf1_1                  fixed                factor   1.000000E+02    90.0  110.0               welflux   -1.000000E+00    0.000000E+00          1
                wf2_1                  fixed                factor   1.000000E+02    90.0  110.0               welflux   -1.000000E+00    0.000000E+00          1
                wf3_1                  fixed                factor   1.000000E+02    90.0  110.0               welflux   -1.000000E+00    0.000000E+00          1
                wf4_1                  fixed                factor   1.000000E+02    90.0  110.0               welflux   -1.000000E+00    0.000000E+00          1
                wf5_1                  fixed                factor   1.000000E+02    90.0  110.0               welflux   -1.000000E+00    0.000000E+00          1
                wf6_1                  fixed                factor   1.000000E+02    90.0  110.0               welflux   -1.000000E+00    0.000000E+00          1
                wf1_2                  fixed                factor   1.000000E+02    50     150.0               welflux   -1.000000E+00    0.000000E+00          1
                wf2_2                  fixed                factor   1.000000E+02    50     150.0               welflux   -1.000000E+00    0.000000E+00          1
                wf3_2                  fixed                factor   1.000000E+02    50     150.0               welflux   -1.000000E+00    0.000000E+00          1
                wf4_2                  fixed                factor   1.000000E+02    50     150.0               welflux   -1.000000E+00    0.000000E+00          1
                wf5_2                  fixed                factor   1.000000E+02    50     150.0               welflux   -1.000000E+00    0.000000E+00          1
                wf6_2                  fixed                factor   1.000000E+02    50     150.0               welflux   -1.000000E+00    0.000000E+00          1
             hkr00c00                   log                factor    5.000000E+00    5.000000E-01    5.000000E+01                    hk    1.000000E+00    0.000000E+00          1
             hkr00c01                   log                factor    5.000000E+00    5.000000E-01    5.000000E+01                    hk    1.000000E+00    0.000000E+00          1
             hkr00c02                   log                factor    5.000000E+00    5.000000E-01    5.000000E+01                    hk    1.000000E+00    0.000000E+00          1
             hkr00c03                   log                factor    5.000000E+00    5.000000E-01    5.000000E+01                    hk    1.000000E+00    0.000000E+00          1
             hkr00c04                   log                factor    5.000000E+00    5.000000E-01    5.000000E+01                    hk    1.000000E+00    0.000000E+00          1
             hkr00c05                   log                factor    5.000000E+00    5.000000E-01    5.000000E+01                    hk    1.000000E+00    0.000000E+00          1
             hkr00c06                   log                factor    5.000000E+00    5.000000E-01    5.000000E+01                    hk    1.000000E+00    0.000000E+00          1
             hkr00c07                   log                factor    5.000000E+00    5.000000E-01    5.000000E+01                    hk    1.000000E+00    0.000000E+00          1
             hkr00c08                   log                factor    5.000000E+00    5.000000E-01    5.000000E+01                    hk    1.000000E+00    0.000000E+00          1
             hkr00c09                   log                factor    5.000000E+00    5.000000E-01    5.000000E+01                    hk    1.000000E+00    0.000000E+00          1
             hkr00c10                   log                factor    5.000000E+00    5.000000E-01    5.000000E+01                    hk    1.000000E+00    0.000000E+00          1
             hkr00c11                   log                factor    5.000000E+00    5.000000E-01    5.000000E+01                    hk    1.000000E+00    0.000000E+00          1
             hkr00c12                   log                factor    5.000000E+00    5.000000E-01    5.000000E+01                    hk    1.000000E+00    0.000000E+00          1
             hkr00c13                   log                factor    5.000000E+00    5.000000E-01    5.000000E+01                    hk    1.000000E+00    0.000000E+00          1
             hkr00c14                   log                factor    5.000000E+00    5.000000E-01    5.000000E+01                    hk    1.000000E+00    0.000000E+00          1
             hkr00c15                   log                factor    5.000000E+00    5.000000E-01    5.000000E+01                    hk    1.000000E+00    0.000000E+00          1
             hkr00c16                   log                factor    5.000000E+00    5.000000E-01    5.000000E+01                    hk    1.000000E+00    0.000000E+00          1
             hkr00c17                   log                factor    5.000000E+00    5.000000E-01    5.000000E+01                    hk    1.000000E+00    0.000000E+00          1
             hkr00c18                   log                factor    5.000000E+00    5.000000E-01    5.000000E+01                    hk    1.000000E+00    0.000000E+00          1
             hkr00c19                   log                factor    5.000000E+00    5.000000E-01    5.000000E+01                    hk    1.000000E+00    0.000000E+00          1
             hkr01c00                   log                factor    5.000000E+00    5.000000E-01    5.000000E+01                    hk    1.000000E+00    0.000000E+00          1
             hkr01c01                   log                factor    5.000000E+00    5.000000E-01    5.000000E+01                    hk    1.000000E+00    0.000000E+00          1
             hkr01c02                   log                factor    5.000000E+00    5.000000E-01    5.000000E+01                    hk    1.000000E+00    0.000000E+00          1
             hkr01c03                   log                factor    5.000000E+00    5.000000E-01    5.000000E+01                    hk    1.000000E+00    0.000000E+00          1
             hkr01c04                   log                factor    5.000000E+00    5.000000E-01    5.000000E+01                    hk    1.000000E+00    0.000000E+00          1
             hkr01c05                   log                factor    5.000000E+00    5.000000E-01    5.000000E+01                    hk    1.000000E+00    0.000000E+00          1
             hkr01c06                   log                factor    5.000000E+00    5.000000E-01    5.000000E+01                    hk    1.000000E+00    0.000000E+00          1
             hkr01c07                   log                factor    5.000000E+00    5.000000E-01    5.000000E+01                    hk    1.000000E+00    0.000000E+00          1
             hkr01c08                   log                factor    5.000000E+00    5.000000E-01    5.000000E+01                    hk    1.000000E+00    0.000000E+00          1
             hkr01c09                   log                factor    5.000000E+00    5.000000E-01    5.000000E+01                    hk    1.000000E+00    0.000000E+00          1
             hkr01c10                   log                factor    5.000000E+00    5.000000E-01    5.000000E+01                    hk    1.000000E+00    0.000000E+00          1
             hkr01c11                   log                factor    5.000000E+00    5.000000E-01    5.000000E+01                    hk    1.000000E+00    0.000000E+00          1
             hkr01c12                   log                factor    5.000000E+00    5.000000E-01    5.000000E+01                    hk    1.000000E+00    0.000000E+00          1
             hkr01c13                   log                factor    5.000000E+00    5.000000E-01    5.000000E+01                    hk    1.000000E+00    0.000000E+00          1
             hkr01c14                   log                factor    5.000000E+00    5.000000E-01    5.000000E+01                    hk    1.000000E+00    0.000000E+00          1
             hkr01c15                   log                factor    5.000000E+00    5.000000E-01    5.000000E+01                    hk    1.000000E+00    0.000000E+00          1
             hkr01c16                   log                factor    5.000000E+00    5.000000E-01    5.000000E+01                    hk    1.000000E+00    0.000000E+00          1
             hkr01c17                   log                factor    5.000000E+00    5.000000E-01    5.000000E+01                    hk    1.000000E+00    0.000000E+00          1
             hkr01c18                   log                factor    5.000000E+00    5.000000E-01    5.000000E+01                    hk    1.000000E+00    0.000000E+00          1
             hkr01c19                   log                factor    5.000000E+00    5.000000E-01    5.000000E+01                    hk    1.000000E+00    0.000000E+00          1
             hkr02c00                   log                factor    5.000000E+00    5.000000E-01    5.000000E+01                    hk    1.000000E+00    0.000000E+00          1
             hkr02c01                   log                factor    5.000000E+00    5.000000E-01    5.000000E+01                    hk    1.000000E+00    0.000000E+00          1
             hkr02c02                   log                factor    5.000000E+00    5.000000E-01    5.000000E+01                    hk    1.000000E+00    0.000000E+00          1
             hkr02c03                   log                factor    5.000000E+00    5.000000E-01    5.000000E+01                    hk    1.000000E+00    0.000000E+00          1
             hkr02c04                   log                factor    5.000000E+00    5.000000E-01    5.000000E+01                    hk    1.000000E+00    0.000000E+00          1
             hkr02c05                   log                factor    5.000000E+00    5.000000E-01    5.000000E+01                    hk    1.000000E+00    0.000000E+00          1
             hkr02c06                   log                factor    5.000000E+00    5.000000E-01    5.000000E+01                    hk    1.000000E+00    0.000000E+00          1
             hkr02c07                   log                factor    5.000000E+00    5.000000E-01    5.000000E+01                    hk    1.000000E+00    0.000000E+00          1
             hkr02c08                   log                factor    5.000000E+00    5.000000E-01    5.000000E+01                    hk    1.000000E+00    0.000000E+00          1
             hkr02c09                   log                factor    5.000000E+00    5.000000E-01    5.000000E+01                    hk    1.000000E+00    0.000000E+00          1
             hkr02c10                   log                factor    5.000000E+00    5.000000E-01    5.000000E+01                    hk    1.000000E+00    0.000000E+00          1
             hkr02c11                   log                factor    5.000000E+00    5.000000E-01    5.000000E+01                    hk    1.000000E+00    0.000000E+00          1
             hkr02c12                   log                factor    5.000000E+00    5.000000E-01    5.000000E+01                    hk    1.000000E+00    0.000000E+00          1
             hkr02c13                   log                factor    5.000000E+00    5.000000E-01    5.000000E+01                    hk    1.000000E+00    0.000000E+00          1
             hkr02c14                   log                factor    5.000000E+00    5.000000E-01    5.000000E+01                    hk    1.000000E+00    0.000000E+00          1
             hkr02c15                   log                factor    5.000000E+00    5.000000E-01    5.000000E+01                    hk    1.000000E+00    0.000000E+00          1
             hkr02c16                   log                factor    5.000000E+00    5.000000E-01    5.000000E+01                    hk    1.000000E+00    0.000000E+00          1
             hkr02c17                   log                factor    5.000000E+00    5.000000E-01    5.000000E+01                    hk    1.000000E+00    0.000000E+00          1
             hkr02c18                   log                factor    5.000000E+00    5.000000E-01    5.000000E+01                    hk    1.000000E+00    0.000000E+00          1
             hkr02c19                   log                factor    5.000000E+00    5.000000E-01    5.000000E+01                    hk    1.000000E+00    0.000000E+00          1
             hkr03c00                   log                factor    5.000000E+00    5.000000E-01    5.000000E+01                    hk    1.000000E+00    0.000000E+00          1
             hkr03c01                   log                factor    5.000000E+00    5.000000E-01    5.000000E+01                    hk    1.000000E+00    0.000000E+00          1
             hkr03c02                   log                factor    5.000000E+00    5.000000E-01    5.000000E+01                    hk    1.000000E+00    0.000000E+00          1
             hkr03c03                   log                factor    5.000000E+00    5.000000E-01    5.000000E+01                    hk    1.000000E+00    0.000000E+00          1
             hkr03c04                   log                factor    5.000000E+00    5.000000E-01    5.000000E+01                    hk    1.000000E+00    0.000000E+00          1
             hkr03c05                   log                factor    5.000000E+00    5.000000E-01    5.000000E+01                    hk    1.000000E+00    0.000000E+00          1
             hkr03c06                   log                factor    5.000000E+00    5.000000E-01    5.000000E+01                    hk    1.000000E+00    0.000000E+00          1
             hkr03c07                   log                factor    5.000000E+00    5.000000E-01    5.000000E+01                    hk    1.000000E+00    0.000000E+00          1
             hkr03c08                   log                factor    5.000000E+00    5.000000E-01    5.000000E+01                    hk    1.000000E+00    0.000000E+00          1
             hkr03c09                   log                factor    5.000000E+00    5.000000E-01    5.000000E+01                    hk    1.000000E+00    0.000000E+00          1
             hkr03c10                   log                factor    5.000000E+00    5.000000E-01    5.000000E+01                    hk    1.000000E+00    0.000000E+00          1
             hkr03c11                   log                factor    5.000000E+00    5.000000E-01    5.000000E+01                    hk    1.000000E+00    0.000000E+00          1
             hkr03c12                   log                factor    5.000000E+00    5.000000E-01    5.000000E+01                    hk    1.000000E+00    0.000000E+00          1
             hkr03c13                   log                factor    5.000000E+00    5.000000E-01    5.000000E+01                    hk    1.000000E+00    0.000000E+00          1
             hkr03c14                   log                factor    5.000000E+00    5.000000E-01    5.000000E+01                    hk    1.000000E+00    0.000000E+00          1
             hkr03c15                   log                factor    5.000000E+00    5.000000E-01    5.000000E+01                    hk    1.000000E+00    0.000000E+00          1
             hkr03c16                   log                factor    5.000000E+00    5.000000E-01    5.000000E+01                    hk    1.000000E+00    0.000000E+00          1
             hkr03c17                   log                factor    5.000000E+00    5.000000E-01    5.000000E+01                    hk    1.000000E+00    0.000000E+00          1
             hkr03c18                   log                factor    5.000000E+00    5.000000E-01    5.000000E+01                    hk    1.000000E+00    0.000000E+00          1
             hkr03c19                   log                factor    5.000000E+00    5.000000E-01    5.000000E+01                    hk    1.000000E+00    0.000000E+00          1
             hkr04c00                   log                factor    5.000000E+00    5.000000E-01    5.000000E+01                    hk    1.000000E+00    0.000000E+00          1
             hkr04c01                   log                factor    5.000000E+00    5.000000E-01    5.000000E+01                    hk    1.000000E+00    0.000000E+00          1
             hkr04c02                   log                factor    5.000000E+00    5.000000E-01    5.000000E+01                    hk    1.000000E+00    0.000000E+00          1
             hkr04c03                   log                factor    5.000000E+00    5.000000E-01    5.000000E+01                    hk    1.000000E+00    0.000000E+00          1
             hkr04c04                   log                factor    5.000000E+00    5.000000E-01    5.000000E+01                    hk    1.000000E+00    0.000000E+00          1
             hkr04c05                   log                factor    5.000000E+00    5.000000E-01    5.000000E+01                    hk    1.000000E+00    0.000000E+00          1
             hkr04c06                   log                factor    5.000000E+00    5.000000E-01    5.000000E+01                    hk    1.000000E+00    0.000000E+00          1
             hkr04c07                   log                factor    5.000000E+00    5.000000E-01    5.000000E+01                    hk    1.000000E+00    0.000000E+00          1
             hkr04c08                   log                factor    5.000000E+00    5.000000E-01    5.000000E+01                    hk    1.000000E+00    0.000000E+00          1
             hkr04c09                   log                factor    5.000000E+00    5.000000E-01    5.000000E+01                    hk    1.000000E+00    0.000000E+00          1
             hkr04c10                   log                factor    5.000000E+00    5.000000E-01    5.000000E+01                    hk    1.000000E+00    0.000000E+00          1
             hkr04c11                   log                factor    5.000000E+00    5.000000E-01    5.000000E+01                    hk    1.000000E+00    0.000000E+00          1
             hkr04c12                   log                factor    5.000000E+00    5.000000E-01    5.000000E+01                    hk    1.000000E+00    0.000000E+00          1
             hkr04c13                   log                factor    5.000000E+00    5.000000E-01    5.000000E+01                    hk    1.000000E+00    0.000000E+00          1
             hkr04c14                   log                factor    5.000000E+00    5.000000E-01    5.000000E+01                    hk    1.000000E+00    0.000000E+00          1
             hkr04c15                   log                factor    5.000000E+00    5.000000E-01    5.000000E+01                    hk    1.000000E+00    0.000000E+00          1
             hkr04c16                   log                factor    5.000000E+00    5.000000E-01    5.000000E+01                    hk    1.000000E+00    0.000000E+00          1
             hkr04c17                   log                factor    5.000000E+00    5.000000E-01    5.000000E+01                    hk    1.000000E+00    0.000000E+00          1
             hkr04c18                   log                factor    5.000000E+00    5.000000E-01    5.000000E+01                    hk    1.000000E+00    0.000000E+00          1
             hkr04c19                   log                factor    5.000000E+00    5.000000E-01    5.000000E+01                    hk    1.000000E+00    0.000000E+00          1
             hkr05c00                   log                factor    5.000000E+00    5.000000E-01    5.000000E+01                    hk    1.000000E+00    0.000000E+00          1
             hkr05c01                   log                factor    5.000000E+00    5.000000E-01    5.000000E+01                    hk    1.000000E+00    0.000000E+00          1