pcf
* control data
restart regularisation
     45   7289      1      0    111  
    1    5 double point  1    0  0
   5.000       -3.0000      0.3  0.03  10     999 LAMFORGIVE
      0.100  10.0  0.001
 0.1
    50  0.005  4  4  0.005  4
1  1  1  1 nojcosaveitn reisaveitn
* svd assist
TMR_ALLEQUASH_FIXED.pst
TMR_ALLEQUASH_FIXED.jco
    1    2    0    1    0
* parameter groups
 pargp absolute    0.015  0.0  switch    2.0 parabolic
* parameter data
par1         none  relative   10.000     1.0e-20  1.0e20  pargp  1.0  -10.000      1
par2         none  relative   10.000     1.0e-20  1.0e20  pargp  1.0  -10.000      1
par3         none  relative   10.000     1.0e-20  1.0e20  pargp  1.0  -10.000      1
par4         none  relative   10.000     1.0e-20  1.0e20  pargp  1.0  -10.000      1
par5         none  relative   10.000     1.0e-20  1.0e20  pargp  1.0  -10.000      1
par6         none  relative   10.000     1.0e-20  1.0e20  pargp  1.0  -10.000      1
par7         none  relative   10.000     1.0e-20  1.0e20  pargp  1.0  -10.000      1
par8         none  relative   10.000     1.0e-20  1.0e20  pargp  1.0  -10.000      1
par9         none  relative   10.000     1.0e-20  1.0e20  pargp  1.0  -10.000      1
par10        none  relative   10.000     1.0e-20  1.0e20  pargp  1.0  -10.000      1
par11        none  relative   10.000     1.0e-20  1.0e20  pargp  1.0  -10.000      1
par12        none  relative   10.000     1.0e-20  1.0e20  pargp  1.0  -10.000      1
par13        none  relative   10.000     1.0e-20  1.0e20  pargp  1.0  -10.000      1
par14        none  relative   10.000     1.0e-20  1.0e20  pargp  1.0  -10.000      1
par15        none  relative   10.000     1.0e-20  1.0e20  pargp  1.0  -10.000      1
par16        none  relative   10.000     1.0e-20  1.0e20  pargp  1.0  -10.000      1
par17        none  relative   10.000     1.0e-20  1.0e20  pargp  1.0  -10.000      1
par18        none  relative   10.000     1.0e-20  1.0e20  pargp  1.0  -10.000      1
par19        none  relative   10.000     1.0e-20  1.0e20  pargp  1.0  -10.000      1
par20        none  relative   10.000     1.0e-20  1.0e20  pargp  1.0  -10.000      1
par21        none  relative   10.000     1.0e-20  1.0e20  pargp  1.0  -10.000      1
par22        none  relative   10.000     1.0e-20  1.0e20  pargp  1.0  -10.000      1
par23        none  relative   10.000     1.0e-20  1.0e20  pargp  1.0  -10.000      1
par24        none  relative   10.000     1.0e-20  1.0e20  pargp  1.0  -10.000      1
par25        none  relative   10.000     1.0e-20  1.0e20  pargp  1.0  -10.000      1
par26        none  relative   10.000     1.0e-20  1.0e20  pargp  1.0  -10.000      1
par27        none  relative   10.000     1.0e-20  1.0e20  pargp  1.0  -10.000      1
par28        none  relative   10.000     1.0e-20  1.0e20  pargp  1.0  -10.000      1
par29        none  relative   10.000     1.0e-20  1.0e20  pargp  1.0  -10.000      1
par30        none  relative   10.000     1.0e-20  1.0e20  pargp  1.0  -10.000      1
par31        none  relative   10.000     1.0e-20  1.0e20  pargp  1.0  -10.000      1
par32        none  relative   10.000     1.0e-20  1.0e20  pargp  1.0  -10.000      1
par33        none  relative   10.000     1.0e-20  1.0e20  pargp  1.0  -10.000      1
par34        none  relative   10.000     1.0e-20  1.0e20  pargp  1.0  -10.000      1
par35        none  relative   10.000     1.0e-20  1.0e20  pargp  1.0  -10.000      1
par36        none  relative   10.000     1.0e-20  1.0e20  pargp  1.0  -10.000      1
par37        none  relative   10.000     1.0e-20  1.0e20  pargp  1.0  -10.000      1
par38        none  relative   10.000     1.0e-20  1.0e20  pargp  1.0  -10.000      1
par39        none  relative   10.000     1.0e-20  1.0e20  pargp  1.0  -10.000      1
par40        none  relative   10.000     1.0e-20  1.0e20  pargp  1.0  -10.000      1
par41        none  relative   10.000     1.0e-20  1.0e20  pargp  1.0  -10.000      1
par42        none  relative   10.000     1.0e-20  1.0e20  pargp  1.0  -10.000      1
par43        none  relative   10.000     1.0e-20  1.0e20  pargp  1.0  -10.000      1
par44        none  relative   10.000     1.0e-20  1.0e20  pargp  1.0  -10.000      1
par45        none  relative   10.000     1.0e-20  1.0e20  pargp  1.0  -10.000      1
* observation groups
regul_kp
regul_kz
regul_rcond
regul_bcmult
regul_dsp
regul_kt
regul_por
regul_kd
regul_rhob
regul_kz17
regul_kz16
regul_kz15
regul_kz14
regul_kz13
regul_kz12
regul_kz11
regul_kz10
regul_kz9
regul_kz8
regul_kz7
regul_kz6
regul_kz5
regul_kz4
regul_kz3
regul_kz2
regul_kz1
regul_kp17
regul_kp16
regul_kp15
regul_kp14
regul_kp13
regul_kp12
regul_kp11
regul_kp10
regul_kp9
regul_kp8
regul_kp7
regul_kp6
regul_kp5
regul_kp4
regul_kp3
regul_kp2
regul_kp1
Head1
riverFlux
o18concs
t1n1-2
t1n1-4
t1n1-wt
t1n2-3
t1n2-8
t1n2-wt
t1n3-3
t1n3-6
t1n3-8
t1n3-wt
t1nh-0p15
t1nh-0p30
t1nh-1
t1s1-3
t1s1-6
t1s1-8
t1s1-wt
t1s2-3
t1s2-6
t1s2-8
t1s2-wt
t1s3-3
t1s3-6
t1s3-8
t1s3-wt
t1sh-0p15
t1sh-0p30
t1sh-1
tcaa1-0p2
tcaa1-0p5
tcaa1-1
tcaa1-1p5
tcaa2-0p2
tcaa2-0p5
tcaa2-1
tcaa2-1p5
tcaa3-0p2
tcaa3-0p5
tcaa3-1
tcaa3-1p5
tcab1-0p2
tcab1-0p5
tcab1-1
tcab1-1p5
tcab2-0p2
tcab2-0p5
tcab2-1
tcab2-1p5
tcab2-3
tcab2-4
tcab3-0p2
tcab3-0p5
tcab3-1
tcab3-1p5
tcac1-0p2
tcac1-0p5
tcac1-1
tcac1-1p5
tcac2-0p2
tcac2-1
tcac2-1p5
tcac3-0p2
tcac3-0p5
tcac3-1
tcac3-1p5
* observation data
N1-WT   496.66    10    Head1
N1-8    496.71    10    Head1
N2-WT   496.37    10    Head1
N2-3    496.39    10    Head1
N2-6    496.38    10    Head1
N2-8    496.68    10    Head1
N3-WT   496.27    10    Head1
N3-3    496.31    10    Head1
N3-6    496.26    10    Head1
N3-8    496.60    10    Head1
S1-WT   496.17    10    Head1
S1-3    496.22    10    Head1
S1-6    496.35    10    Head1
S1-8    496.68    10    Head1
S2-WT   496.27    10    Head1
S2-3    496.29    10    Head1
S2-6    496.45    10    Head1
S2-8    496.68    10    Head1
S3-WT   496.59    10    Head1
S3-3    496.60    10    Head1
S3-6    496.71    10    Head1
S3-8    496.77    10    Head1
sg4     1.05e+04 0.0 riverFlux
sg3     1.10e+04 0.0 riverFlux
sg2     1.01e+04 0.0 riverFlux
sg1     9.24e+03 0.0 riverFlux
USGS    1.94752e+03 0.01 riverFlux
S3WTc  8.98  2  o18concs
S3-3c  7.68  2  o18concs
S3-6c  9.8  2  o18concs
S3-8c  9.68  2  o18concs
S2-WTc  7.7  2  o18concs
S2-3c  7.72  2  o18concs
S2-6c  9.73  2  o18concs
S2-8c  5.46  2  o18concs
S1-WTc  8.23  2  o18concs
S1-3c  6.93  2  o18concs
S1-6c  6.68  2  o18concs
S1-8c  4.84  2  o18concs
N3-WTc  9.05  2  o18concs
N3-3c  8.42  2  o18concs
N3-8c  5.82  2  o18concs
N2-WTc  10.09  2  o18concs
N2-3c  9.33  2  o18concs
N2-8c  8.54  2  o18concs
N1-WTc  10.28  2  o18concs
N1-2c  10.34  2  o18concs
N1-4c  7.81  2  o18concs
N1-6c  8.7  2  o18concs
WS-N2   6.97  2  o18concs
WS-S1   6.75  20  o18concs
WS-S1A  6.4  20  o18concs
WS-S1B  7.27  20  o18concs
t1n1-2_1               6.850000        0.500000      t1n1-2
t1n1-2_2               6.370000        0.500000      t1n1-2
t1n1-2_3               6.150000        0.500000      t1n1-2
t1n1-2_4               5.920000        0.500000      t1n1-2
t1n1-2_5               5.780000        0.500000      t1n1-2
t1n1-2_6               6.090000        0.500000      t1n1-2
t1n1-2_7               6.580000        0.500000      t1n1-2
t1n1-2_8               7.410000        0.500000      t1n1-2
t1n1-4_1               7.450000        0.500000      t1n1-4
t1n1-4_2               7.460000        0.500000      t1n1-4
t1n1-4_3               7.280000        0.500000      t1n1-4
t1n1-4_4               7.220000        0.500000      t1n1-4
t1n1-4_5               6.960000        0.500000      t1n1-4
t1n1-4_6               7.120000        0.500000      t1n1-4
t1n1-4_7               7.210000        0.500000      t1n1-4
t1n1-4_8               7.290000        0.500000      t1n1-4
t1n1-wt_1              5.870000        0.500000      t1n1-wt
t1n1-wt_2              10.28000        0.500000      t1n1-wt
t1n1-wt_3              12.13000        0.500000      t1n1-wt
t1n1-wt_4              11.96000        0.500000      t1n1-wt
t1n1-wt_5              11.51000        0.500000      t1n1-wt
t1n2-3_1               7.210000        0.500000      t1n2-3
t1n2-3_2               6.920000        0.500000      t1n2-3
t1n2-3_3               6.820000        0.500000      t1n2-3
t1n2-3_4               6.560000        0.500000      t1n2-3
t1n2-3_5               6.430000        0.500000      t1n2-3
t1n2-3_6               6.490000        0.500000      t1n2-3
t1n2-3_7               6.580000        0.500000      t1n2-3
t1n2-3_8               6.820000        0.500000      t1n2-3
t1n2-3_9               7.250000        0.500000      t1n2-3
t1n2-3_10              7.730000        0.500000      t1n2-3
t1n2-3_11              8.020000        0.500000      t1n2-3
t1n2-3_12              7.340000        0.500000      t1n2-3
t1n2-3_13              7.210000        0.500000      t1n2-3
t1n2-3_14              6.800000        0.500000      t1n2-3
t1n2-3_15              6.640000        0.500000      t1n2-3
t1n2-3_16              6.340000        0.500000      t1n2-3
t1n2-3_17              6.070000        0.500000      t1n2-3
t1n2-3_18              5.990000        0.500000      t1n2-3
t1n2-3_19              6.170000        0.500000      t1n2-3
t1n2-3_20              6.400000        0.500000      t1n2-3
t1n2-3_21              6.670000        0.500000      t1n2-3
t1n2-8_1               7.810000        0.500000      t1n2-8
t1n2-8_2               7.880000        0.500000      t1n2-8
t1n2-8_3               7.910000        0.500000      t1n2-8
t1n2-8_4               7.840000        0.500000      t1n2-8
t1n2-8_5               7.800000        0.500000      t1n2-8
t1n2-8_6               7.870000        0.500000      t1n2-8
t1n2-8_7               7.800000        0.500000      t1n2-8
t1n2-8_8               7.850000        0.500000      t1n2-8
t1n2-8_9               7.880000        0.500000      t1n2-8
t1n2-8_10              7.900000        0.500000      t1n2-8
t1n2-8_11              7.940000        0.500000      t1n2-8
t1n2-8_12              7.960000        0.500000      t1n2-8
t1n2-8_13              7.980000        0.500000      t1n2-8
t1n2-8_14              7.880000        0.500000      t1n2-8
t1n2-8_15              7.800000        0.500000      t1n2-8
t1n2-8_16              7.810000        0.500000      t1n2-8
t1n2-8_17              7.750000        0.500000      t1n2-8
t1n2-8_18              7.510000        0.500000      t1n2-8
t1n2-8_19              7.620000        0.500000      t1n2-8
t1n2-8_20              7.730000        0.500000      t1n2-8
t1n2-8_21              7.980000        0.500000      t1n2-8
t1n2-wt_1              6.620000        0.500000      t1n2-wt
t1n2-wt_2              12.21000        0.500000      t1n2-wt
t1n2-wt_3              14.30000        0.500000      t1n2-wt
t1n2-wt_4              13.89000        0.500000      t1n2-wt
t1n2-wt_5              12.00000        0.500000      t1n2-wt
t1n2-wt_6              8.400000        0.500000      t1n2-wt
t1n2-wt_7              5.100000        0.500000      t1n2-wt
t1n3-3_1               7.820000        0.500000      t1n3-3
t1n3-3_2               7.490000        0.500000      t1n3-3
t1n3-3_3               7.110000        0.500000      t1n3-3
t1n3-3_4               7.050000        0.500000      t1n3-3
t1n3-3_5               6.850000        0.500000      t1n3-3
t1n3-3_6               6.807000        0.500000      t1n3-3
t1n3-3_7               7.416594        0.500000      t1n3-3
t1n3-3_8               6.399000        0.500000      t1n3-3
t1n3-3_9               6.276000        0.500000      t1n3-3
t1n3-3_10              6.862000        0.500000      t1n3-3
t1n3-3_11              7.020000        0.500000      t1n3-3
t1n3-3_12              7.440000        0.500000      t1n3-3
t1n3-3_13              7.460000        0.500000      t1n3-3
t1n3-3_14              7.803771        0.500000      t1n3-3
t1n3-3_15              7.280000        0.500000      t1n3-3
t1n3-6_1               7.820000        0.500000      t1n3-6
t1n3-6_2               7.780000        0.500000      t1n3-6
t1n3-6_3               8.010000        0.500000      t1n3-6
t1n3-6_4               7.770000        0.500000      t1n3-6
t1n3-6_5               7.580000        0.500000      t1n3-6
t1n3-6_6               7.610000        0.500000      t1n3-6
t1n3-6_7               8.040525        0.500000      t1n3-6
t1n3-6_8               6.619000        0.500000      t1n3-6
t1n3-6_9               6.412000        0.500000      t1n3-6
t1n3-6_10              6.887000        0.500000      t1n3-6
t1n3-6_11              7.030000        0.500000      t1n3-6
t1n3-6_12              7.510000        0.500000      t1n3-6
t1n3-6_13              7.480000        0.500000      t1n3-6
t1n3-6_14              7.943279        0.500000      t1n3-6
t1n3-6_15              7.680000        0.500000      t1n3-6
t1n3-8_1               7.870000        0.500000      t1n3-8
t1n3-8_2               7.810000        0.500000      t1n3-8
t1n3-8_3               7.930000        0.500000      t1n3-8
t1n3-8_4               7.900000        0.500000      t1n3-8
t1n3-8_5               7.820000        0.500000      t1n3-8
t1n3-8_6               7.890000        0.500000      t1n3-8
t1n3-8_7               8.434272        0.500000      t1n3-8
t1n3-8_8               7.480000        0.500000      t1n3-8
t1n3-8_9               7.230000        0.500000      t1n3-8
t1n3-8_10              7.610000        0.500000      t1n3-8
t1n3-8_11              7.630000        0.500000      t1n3-8
t1n3-8_12              7.920000        0.500000      t1n3-8
t1n3-8_13              7.730000        0.500000      t1n3-8
t1n3-8_14              8.051147        0.500000      t1n3-8
t1n3-8_15              7.840000        0.500000      t1n3-8
t1n3-wt_1             -3.897000        0.500000      t1n3-wt
t1n3-wt_2             -12.94000        0.500000      t1n3-wt
t1n3-wt_3            -7.1999997E-02    0.500000      t1n3-wt
t1n3-wt_4             -12.64000        0.500000      t1n3-wt
t1n3-wt_5             -3.024000        0.500000      t1n3-wt
t1n3-wt_6              2.545000        0.500000      t1n3-wt
t1n3-wt_7              10.32458        0.500000      t1n3-wt
t1n3-wt_8              5.983000        0.500000      t1n3-wt
t1n3-wt_9              3.777000        0.500000      t1n3-wt
t1n3-wt_10             13.46000        0.500000      t1n3-wt
t1n3-wt_11             10.13000        0.500000      t1n3-wt
t1n3-wt_12             14.97000        0.500000      t1n3-wt
t1n3-wt_13             2.087000        0.500000      t1n3-wt
t1n3-wt_14            -5.319033        0.500000      t1n3-wt
t1n3-wt_15            -8.760000        0.500000      t1n3-wt
t1nh-0p15_1            21.45000        0.500000      t1nh-0p15
t1nh-0p15_2            13.50000        0.500000      t1nh-0p15
t1nh-0p15_3            8.200000        0.500000      t1nh-0p15
t1nh-0p15_4            8.200000        0.500000      t1nh-0p15
t1nh-0p15_5           -8.500000        0.500000      t1nh-0p15
t1nh-0p15_6           -2.400000        0.500000      t1nh-0p15
t1nh-0p15_7           -7.800000        0.500000      t1nh-0p15
t1nh-0p15_8           -15.10000        0.500000      t1nh-0p15
t1nh-0p15_9            6.700000        0.500000      t1nh-0p15
t1nh-0p15_10           7.400000        0.500000      t1nh-0p15
t1nh-0p15_11           15.00000        0.500000      t1nh-0p15
t1nh-0p15_12           12.70000        0.500000      t1nh-0p15
t1nh-0p15_13           23.91306        0.500000      t1nh-0p15
t1nh-0p15_14           7.900000        0.500000      t1nh-0p15
t1nh-0p15_15           6.300000        0.500000      t1nh-0p15
t1nh-0p15_16           5.400001        0.500000      t1nh-0p15
t1nh-0p15_17          -9.100000        0.500000      t1nh-0p15
t1nh-0p15_18         -0.5000000        0.500000      t1nh-0p15
t1nh-0p15_19          -13.50000        0.500000      t1nh-0p15
t1nh-0p15_20          -3.100000        0.500000      t1nh-0p15
t1nh-0p15_21           1.400000        0.500000      t1nh-0p15
t1nh-0p15_22           2.200000        0.500000      t1nh-0p15
t1nh-0p15_23           18.40000        0.500000      t1nh-0p15
t1nh-0p15_24           8.700000        0.500000      t1nh-0p15
t1nh-0p30_1            21.62000        0.500000      t1nh-0p30
t1nh-0p30_2            17.30000        0.500000      t1nh-0p30
t1nh-0p30_3            11.10000        0.500000      t1nh-0p30
t1nh-0p30_4            8.200000        0.500000      t1nh-0p30
t1nh-0p30_5           0.3000000        0.500000      t1nh-0p30
t1nh-0p30_6          -0.6000000        0.500000      t1nh-0p30
t1nh-0p30_7          -0.5000000        0.500000      t1nh-0p30
t1nh-0p30_8           -1.000000        0.500000      t1nh-0p30
t1nh-0p30_9          -1.3877788E-17    0.500000      t1nh-0p30
t1nh-0p30_10           7.100000        0.500000      t1nh-0p30
t1nh-0p30_11           18.80000        0.500000      t1nh-0p30
t1nh-0p30_12           18.70000        0.500000      t1nh-0p30
t1nh-0p30_13           20.67798        0.500000      t1nh-0p30
t1nh-0p30_14           15.80000        0.500000      t1nh-0p30
t1nh-0p30_15           8.200000        0.500000      t1nh-0p30
t1nh-0p30_16           2.400000        0.500000      t1nh-0p30
t1nh-0p30_17           1.200000        0.500000      t1nh-0p30
t1nh-0p30_18         -0.3000000        0.500000      t1nh-0p30
t1nh-0p30_19          -1.500000        0.500000      t1nh-0p30
t1nh-0p30_20          -1.200000        0.500000      t1nh-0p30
t1nh-0p30_21          0.6000000        0.500000      t1nh-0p30
t1nh-0p30_22           6.500000        0.500000      t1nh-0p30
t1nh-0p30_23           14.60000        0.500000      t1nh-0p30
t1nh-0p30_24           17.60000        0.500000      t1nh-0p30
t1nh-1_1               17.81000        0.500000      t1nh-1
t1nh-1_2               16.00000        0.500000      t1nh-1
t1nh-1_3               12.50000        0.500000      t1nh-1
t1nh-1_4               8.100000        0.500000      t1nh-1
t1nh-1_5               1.900000        0.500000      t1nh-1
t1nh-1_6              0.3000000        0.500000      t1nh-1
t1nh-1_7               0.000000        0.500000      t1nh-1
t1nh-1_8             -0.4000000        0.500000      t1nh-1
t1nh-1_9              0.4000000        0.500000      t1nh-1
t1nh-1_10              6.400000        0.500000      t1nh-1
t1nh-1_11              15.30000        0.500000      t1nh-1
t1nh-1_12              15.80000        0.500000      t1nh-1
t1nh-1_13              18.15933        0.500000      t1nh-1
t1nh-1_14              15.10000        0.500000      t1nh-1
t1nh-1_15              9.700000        0.500000      t1nh-1
t1nh-1_16              3.300000        0.500000      t1nh-1
t1nh-1_17              1.800000        0.500000      t1nh-1
t1nh-1_18             0.4000000        0.500000      t1nh-1
t1nh-1_19            -0.3000000        0.500000      t1nh-1
t1nh-1_20            -0.9000000        0.500000      t1nh-1
t1nh-1_21            -0.3000000        0.500000      t1nh-1
t1nh-1_22             0.7000000        0.500000      t1nh-1
t1nh-1_23              8.400000        0.500000      t1nh-1
t1nh-1_24              15.30000        0.500000      t1nh-1
t1s1-3_1               8.180000        0.500000      t1s1-3
t1s1-3_2               7.646522        0.500000      t1s1-3
t1s1-3_3               7.480000        0.500000      t1s1-3
t1s1-3_4               6.856000        0.500000      t1s1-3
t1s1-3_5               6.752000        0.500000      t1s1-3
t1s1-3_6               6.584000        0.500000      t1s1-3
t1s1-3_7               6.541044        0.500000      t1s1-3
t1s1-3_8               6.375000        0.500000      t1s1-3
t1s1-3_9               6.294000        0.500000      t1s1-3
t1s1-3_10              6.701000        0.500000      t1s1-3
t1s1-3_11              7.000000        0.500000      t1s1-3
t1s1-3_12              7.480000        0.500000      t1s1-3
t1s1-3_13              7.660000        0.500000      t1s1-3
t1s1-3_14              6.836000        0.500000      t1s1-3
t1s1-3_15              6.954000        0.500000      t1s1-3
t1s1-6_1               7.450000        0.500000      t1s1-6
t1s1-6_2               7.727174        0.500000      t1s1-6
t1s1-6_3               7.810000        0.500000      t1s1-6
t1s1-6_4               7.620000        0.500000      t1s1-6
t1s1-6_5               7.770000        0.500000      t1s1-6
t1s1-6_6               7.830000        0.500000      t1s1-6
t1s1-6_7               8.024164        0.500000      t1s1-6
t1s1-6_8               7.660000        0.500000      t1s1-6
t1s1-6_9               7.630000        0.500000      t1s1-6
t1s1-6_10              7.800000        0.500000      t1s1-6
t1s1-6_11              7.820000        0.500000      t1s1-6
t1s1-6_12              7.760000        0.500000      t1s1-6
t1s1-6_13              7.560000        0.500000      t1s1-6
t1s1-6_14              7.390000        0.500000      t1s1-6
t1s1-6_15              7.590000        0.500000      t1s1-6
t1s1-8_1               7.680000        0.500000      t1s1-8
t1s1-8_2               7.713913        0.500000      t1s1-8
t1s1-8_3               7.820000        0.500000      t1s1-8
t1s1-8_4               7.610000        0.500000      t1s1-8
t1s1-8_5               7.720000        0.500000      t1s1-8
t1s1-8_6               7.780000        0.500000      t1s1-8
t1s1-8_7               7.882150        0.500000      t1s1-8
t1s1-8_8               7.710000        0.500000      t1s1-8
t1s1-8_9               7.600000        0.500000      t1s1-8
t1s1-8_10              7.700000        0.500000      t1s1-8
t1s1-8_11              7.680000        0.500000      t1s1-8
t1s1-8_12              7.720000        0.500000      t1s1-8
t1s1-8_13              7.560000        0.500000      t1s1-8
t1s1-8_14              7.310000        0.500000      t1s1-8
t1s1-8_15              7.620000        0.500000      t1s1-8
t1s1-wt_1             -4.114000        0.500000      t1s1-wt
t1s1-wt_2             -8.186956        0.500000      t1s1-wt
t1s1-wt_3            -0.2100000        0.500000      t1s1-wt
t1s1-wt_4             -18.93000        0.500000      t1s1-wt
t1s1-wt_5             -4.489000        0.500000      t1s1-wt
t1s1-wt_6              2.538000        0.500000      t1s1-wt
t1s1-wt_7              4.135905        0.500000      t1s1-wt
t1s1-wt_8              5.997000        0.500000      t1s1-wt
t1s1-wt_9              4.236000        0.500000      t1s1-wt
t1s1-wt_10             13.40000        0.500000      t1s1-wt
t1s1-wt_11             10.33000        0.500000      t1s1-wt
t1s1-wt_12             14.89000        0.500000      t1s1-wt
t1s1-wt_13             1.805000        0.500000      t1s1-wt
t1s1-wt_14            -24.07000        0.500000      t1s1-wt
t1s1-wt_15            -7.930000        0.500000      t1s1-wt
t1s2-3_1               7.100000        0.500000      t1s2-3
t1s2-3_2               6.800000        0.500000      t1s2-3
t1s2-3_3               6.600000        0.500000      t1s2-3
t1s2-3_4               6.300000        0.500000      t1s2-3
t1s2-3_5               6.300000        0.500000      t1s2-3
t1s2-3_6               6.300000        0.500000      t1s2-3
t1s2-3_7               6.241281        0.500000      t1s2-3
t1s2-3_8               6.548598        0.500000      t1s2-3
t1s2-3_9               6.900000        0.500000      t1s2-3
t1s2-3_10              7.200000        0.500000      t1s2-3
t1s2-3_11              7.600000        0.500000      t1s2-3
t1s2-3_12              8.000000        0.500000      t1s2-3
t1s2-3_13              7.600000        0.500000      t1s2-3
t1s2-3_14              7.400000        0.500000      t1s2-3
t1s2-6_1               7.300000        0.500000      t1s2-6
t1s2-6_2               7.300000        0.500000      t1s2-6
t1s2-6_3               7.200000        0.500000      t1s2-6
t1s2-6_4               7.300000        0.500000      t1s2-6
t1s2-6_5               7.100000        0.500000      t1s2-6
t1s2-6_6               7.000000        0.500000      t1s2-6
t1s2-6_7               7.280732        0.500000      t1s2-6
t1s2-6_8               7.456341        0.500000      t1s2-6
t1s2-6_9               7.500000        0.500000      t1s2-6
t1s2-6_10              7.600000        0.500000      t1s2-6
t1s2-6_11              7.700000        0.500000      t1s2-6
t1s2-6_12              7.700000        0.500000      t1s2-6
t1s2-6_13              7.200000        0.500000      t1s2-6
t1s2-6_14              7.400000        0.500000      t1s2-6
t1s2-8_1               7.300000        0.500000      t1s2-8
t1s2-8_2               7.300000        0.500000      t1s2-8
t1s2-8_3               7.200000        0.500000      t1s2-8
t1s2-8_4               7.300000        0.500000      t1s2-8
t1s2-8_5               7.300000        0.500000      t1s2-8
t1s2-8_6               7.300000        0.500000      t1s2-8
t1s2-8_7               7.360549        0.500000      t1s2-8
t1s2-8_8               7.492256        0.500000      t1s2-8
t1s2-8_9               7.500000        0.500000      t1s2-8
t1s2-8_10              7.600000        0.500000      t1s2-8
t1s2-8_11              7.600000        0.500000      t1s2-8
t1s2-8_12              7.700000        0.500000      t1s2-8
t1s2-8_13              7.200000        0.500000      t1s2-8
t1s2-8_14              7.400000        0.500000      t1s2-8
t1s2-wt_1              13.60000        0.500000      t1s2-wt
t1s2-wt_2              8.100000        0.500000      t1s2-wt
t1s2-wt_3              7.800000        0.500000      t1s2-wt
t1s2-wt_4             -9.200000        0.500000      t1s2-wt
t1s2-wt_5             -2.500000        0.500000      t1s2-wt
t1s2-wt_6             -13.30000        0.500000      t1s2-wt
t1s2-wt_7             -24.30000        0.500000      t1s2-wt
t1s2-wt_8              5.900000        0.500000      t1s2-wt
t1s2-wt_9              7.500000        0.500000      t1s2-wt
t1s2-wt_10             13.70000        0.500000      t1s2-wt
t1s2-wt_11             11.00000        0.500000      t1s2-wt
t1s2-wt_12             20.30000        0.500000      t1s2-wt
t1s2-wt_13             6.600000        0.500000      t1s2-wt
t1s2-wt_14             6.400000        0.500000      t1s2-wt
t1s2-wt_15             5.600000        0.500000      t1s2-wt
t1s2-wt_16            -10.90000        0.500000      t1s2-wt
t1s2-wt_17           -0.9000000        0.500000      t1s2-wt
t1s2-wt_18            -16.40000        0.500000      t1s2-wt
t1s2-wt_19            -3.700000        0.500000      t1s2-wt
t1s2-wt_20            0.8000000        0.500000      t1s2-wt
t1s2-wt_21           -0.6000000        0.500000      t1s2-wt
t1s2-wt_22             3.759027        0.500000      t1s2-wt
t1s2-wt_23             21.50676        0.500000      t1s2-wt
t1s2-wt_24             18.60000        0.500000      t1s2-wt
t1s2-wt_25             11.00000        0.500000      t1s2-wt
t1s2-wt_26             13.60000        0.500000      t1s2-wt
t1s2-wt_27             10.10000        0.500000      t1s2-wt
t1s2-wt_28            -8.200000        0.500000      t1s2-wt
t1s2-wt_29            -2.300000        0.500000      t1s2-wt
t1s3-3_1               7.420000        0.500000      t1s3-3
t1s3-3_2               7.880000        0.500000      t1s3-3
t1s3-3_3               7.620000        0.500000      t1s3-3
t1s3-3_4               7.420000        0.500000      t1s3-3
t1s3-3_5               7.110000        0.500000      t1s3-3
t1s3-3_6               6.990000        0.500000      t1s3-3
t1s3-3_7               6.591000        0.500000      t1s3-3
t1s3-3_8               6.266000        0.500000      t1s3-3
t1s3-3_9               6.008000        0.500000      t1s3-3
t1s3-3_10              6.318000        0.500000      t1s3-3
t1s3-3_11              6.696000        0.500000      t1s3-3
t1s3-3_12              7.660000        0.500000      t1s3-3
t1s3-3_13              7.630000        0.500000      t1s3-3
t1s3-3_14              7.580000        0.500000      t1s3-3
t1s3-3_15              7.540000        0.500000      t1s3-3
t1s3-6_1               6.281000        0.500000      t1s3-6
t1s3-6_2               5.702000        0.500000      t1s3-6
t1s3-6_3               8.160000        0.500000      t1s3-6
t1s3-6_4               6.303000        0.500000      t1s3-6
t1s3-6_5               6.594000        0.500000      t1s3-6
t1s3-6_6               10.10000        0.500000      t1s3-6
t1s3-6_7               6.957000        0.500000      t1s3-6
t1s3-6_8               6.874000        0.500000      t1s3-6
t1s3-6_9               6.975000        0.500000      t1s3-6
t1s3-6_10              7.110000        0.500000      t1s3-6
t1s3-6_11              7.680000        0.500000      t1s3-6
t1s3-6_12              19.88000        0.500000      t1s3-6
t1s3-6_13              13.25000        0.500000      t1s3-6
t1s3-6_14              6.767000        0.500000      t1s3-6
t1s3-6_15              8.650000        0.500000      t1s3-6
t1s3-8_1               7.040000        0.500000      t1s3-8
t1s3-8_2               7.200000        0.500000      t1s3-8
t1s3-8_3               7.240000        0.500000      t1s3-8
t1s3-8_4               7.370000        0.500000      t1s3-8
t1s3-8_5               7.290000        0.500000      t1s3-8
t1s3-8_6               7.370000        0.500000      t1s3-8
t1s3-8_7               7.420000        0.500000      t1s3-8
t1s3-8_8               7.250000        0.500000      t1s3-8
t1s3-8_9               7.170000        0.500000      t1s3-8