pcf
* control data
restart estimation
6 506 3 0 2
1  1  double  point  1  0  0
1.000000e+001  2.000000e+000  3.000000e-001  1.000000e-002  10
1.000000e+001  1.000000e+001  1.000000e-003
1.000000e-001 noaui
0  1.000000e-002  3  3  1.000000e-002  3 **** CONTROLS OPTIMIZATION: SEE PEST MANUAL ****
1  1  1
* parameter groups
Kh     relative   1.000000e-002  0.000000e+000  switch  2.000000e+000  parabolic
Khi    relative   1.000000e-002  0.000000e+000  switch  2.000000e+000  parabolic
Rch    relative   1.000000e-002  0.000000e+000  switch  2.000000e+000  parabolic
* parameter data
Kapple______	log   factor   19.5	 1.95	 195	Kh     1.0      0.0 1
Kmideast____	log   factor   30	 3	 300	Khi    1.0      0.0 1
Kpolk_______	log   factor   7	 .7	 70	Khi    1.0      0.0 1
Ksunrise____	log   factor   14	 1.4	 140	Khi    1.0      0.0 1
Rmiddle_____	none  factor   .001321	 .0001321	 .01321	Rch    -1.0     0.0 1
Rsouth______	none  factor   .001462	 .0001462	 .01462	Rch    -1.0     0.0 1
* observation groups
Head
Streamflow
* observation data
164 1185.75	1.000000 Head
179 1002.96	1.000000 Head
3872 1040.11	1.000000 Head
3873 940	1.000000 Head
3874 1250.15	1.000000 Head
3875 1160.13	1.000000 Head
3877 1059.16	1.000000 Head
3888 894	1.000000 Head
3889 1001	1.000000 Head
3891 1008	1.000000 Head
3892 978	1.000000 Head
3893 1053	1.000000 Head
3894 1007	1.000000 Head
3895 1070	1.000000 Head
3897 1153	1.000000 Head
3898 1091	1.000000 Head
3899 1151	1.000000 Head
3900 1151	1.000000 Head
3901 1141	1.000000 Head
3902 907	1.000000 Head
3903 1284	1.000000 Head
3904 1188	1.000000 Head
3905 1074	1.000000 Head
3906 1211	1.000000 Head
3907 1146	1.000000 Head
3908 900	1.000000 Head
3909 1010	1.000000 Head
3910 1075	1.000000 Head
3912 1074	1.000000 Head
3913 1145	1.000000 Head
3915 1190	1.000000 Head
3916 1020	1.000000 Head
3917 993	1.000000 Head
3920 899	1.000000 Head
3921 880	1.000000 Head
3922 1091	1.000000 Head
3925 1155	1.000000 Head
3926 1159	1.000000 Head
3927 1172	1.000000 Head
3928 1110	1.000000 Head
3929 1114	1.000000 Head
3930 1020	1.000000 Head
3931 1205	1.000000 Head
3933 1297	1.000000 Head
3936 1184	1.000000 Head
3939 1168	1.000000 Head
3940 997	1.000000 Head
3941 1155	1.000000 Head
3944 1082	1.000000 Head
3946 1117	1.000000 Head
3947 935	1.000000 Head
3948 939	1.000000 Head
3949 1199	1.000000 Head
3951 1081	1.000000 Head
3952 1149	1.000000 Head
3953 1130	1.000000 Head
3954 1179	1.000000 Head
3955 1152	1.000000 Head
3957 1151	1.000000 Head
3959 1155	1.000000 Head
3960 998	1.000000 Head
3962 1172	1.000000 Head
3966 886	1.000000 Head
3967 907	1.000000 Head
3969 1165	1.000000 Head
3971 1236	1.000000 Head
3972 1081	1.000000 Head
3973 966	1.000000 Head
3974 1124	1.000000 Head
3975 1066	1.000000 Head
3976 1020	1.000000 Head
3977 1108	1.000000 Head
3978 1163	1.000000 Head
3979 1242	1.000000 Head
3980 1141	1.000000 Head
3981 1151	1.000000 Head
3982 926	1.000000 Head
3983 926	1.000000 Head
3984 1047	1.000000 Head
3985 879	1.000000 Head
3986 882	1.000000 Head
3987 905	1.000000 Head
3988 1174	1.000000 Head
3989 943	1.000000 Head
3990 897	1.000000 Head
3991 861	1.000000 Head
3994 932	1.000000 Head
3996 902	1.000000 Head
3997 1251	1.000000 Head
3998 1114	1.000000 Head
3999 1013	1.000000 Head
4000 1013	1.000000 Head
4002 1003	1.000000 Head
4003 1141	1.000000 Head
4005 1113	1.000000 Head
4009 970	1.000000 Head
4010 1150	1.000000 Head
4011 1123	1.000000 Head
4012 1161	1.000000 Head
4013 1160	1.000000 Head
4014 1131	1.000000 Head
4015 1082	1.000000 Head
4017 1109	1.000000 Head
4018 1149	1.000000 Head
4019 979	1.000000 Head
4020 1054	1.000000 Head
4021 1198	1.000000 Head
4022 1113	1.000000 Head
4024 1321	1.000000 Head
4025 1131	1.000000 Head
4026 1173	1.000000 Head
4027 1190	1.000000 Head
4028 1195	1.000000 Head
4029 941	1.000000 Head
4030 1157	1.000000 Head
4031 1087	1.000000 Head
4032 1190	1.000000 Head
4033 1192	1.000000 Head
4034 1294	1.000000 Head
4035 1218	1.000000 Head
4036 1190	1.000000 Head
4037 1219	1.000000 Head
4039 1032	1.000000 Head
4041 1045	1.000000 Head
4042 1151	1.000000 Head
4044 1077	1.000000 Head
4045 1175	1.000000 Head
4047 1221	1.000000 Head
4048 1076	1.000000 Head
4049 1161	1.000000 Head
4050 1131	1.000000 Head
4051 1063	1.000000 Head
4052 919	1.000000 Head
4053 1144	1.000000 Head
4054 1194	1.000000 Head
4055 1179	1.000000 Head
4056 1140	1.000000 Head
4057 1140	1.000000 Head
4059 1161	1.000000 Head
4060 1203	1.000000 Head
4065 1011	1.000000 Head
4066 906	1.000000 Head
4067 928	1.000000 Head
4068 1020	1.000000 Head
4069 1222	1.000000 Head
4070 1242	1.000000 Head
4071 1248	1.000000 Head
4072 1154	1.000000 Head
4073 998	1.000000 Head
4076 967	1.000000 Head
4077 1019	1.000000 Head
4081 886	1.000000 Head
4084 953	1.000000 Head
4088 974	1.000000 Head
4089 1088	1.000000 Head
4090 888	1.000000 Head
4091 1175	1.000000 Head
4095 883	1.000000 Head
4099 966	1.000000 Head
4100 1020	1.000000 Head
4111 1020	1.000000 Head
4115 870	1.000000 Head
4124 1173	1.000000 Head
4128 1099	1.000000 Head
4132 1189	1.000000 Head
4133 1189	1.000000 Head
4137 1151	1.000000 Head
4146 1047	1.000000 Head
4149 1084	1.000000 Head
4156 1217	1.000000 Head
4157 966	1.000000 Head
4165 1117	1.000000 Head
4166 1111	1.000000 Head
4174 981	1.000000 Head
4176 878	1.000000 Head
4177 1074	1.000000 Head
4183 981	1.000000 Head
4185 1008	1.000000 Head
4188 907	1.000000 Head
4193 937	1.000000 Head
4195 1111	1.000000 Head
4197 919	1.000000 Head
4198 1142	1.000000 Head
4199 1082	1.000000 Head
4200 1149	1.000000 Head
4201 993	1.000000 Head
4203 1150	1.000000 Head
4206 1139	1.000000 Head
4207 978	1.000000 Head
4211 981	1.000000 Head
4215 1159	1.000000 Head
4221 992	1.000000 Head
4228 1210	1.000000 Head
4233 1129	1.000000 Head
4234 880	1.000000 Head
4240 1184	1.000000 Head
4242 1001	1.000000 Head
4243 1010	1.000000 Head
4245 992	1.000000 Head
4250 990	1.000000 Head
4251 990	1.000000 Head
4252 1001	1.000000 Head
4255 1044	1.000000 Head
4256 910	1.000000 Head
4257 939	1.000000 Head
4260 975	1.000000 Head
4262 840	1.000000 Head
4269 877	1.000000 Head
4272 834	1.000000 Head
4273 1131	1.000000 Head
4274 1173	1.000000 Head
4276 834	1.000000 Head
4277 1153	1.000000 Head
4281 1161	1.000000 Head
4282 1151	1.000000 Head
4284 982	1.000000 Head
4285 970	1.000000 Head
4295 863	1.000000 Head
4296 1024	1.000000 Head
4297 1019	1.000000 Head
4298 1038	1.000000 Head
4300 1059	1.000000 Head
4302 1091	1.000000 Head
4303 985	1.000000 Head
4304 1102	1.000000 Head
4305 1149	1.000000 Head
4309 954	1.000000 Head
4310 1248	1.000000 Head
4312 1060	1.000000 Head
4313 1064	1.000000 Head
4315 928	1.000000 Head
4316 1127	1.000000 Head
4317 1163	1.000000 Head
4318 1149	1.000000 Head
4319 1149	1.000000 Head
4321 900	1.000000 Head
4322 1068	1.000000 Head
4323 993	1.000000 Head
4324 996	1.000000 Head
4325 1070	1.000000 Head
4327 882	1.000000 Head
4328 1110	1.000000 Head
4329 1206	1.000000 Head
4330 1200	1.000000 Head
4331 1070	1.000000 Head
4333 1113	1.000000 Head
4334 1170	1.000000 Head
4335 1151	1.000000 Head
4336 930	1.000000 Head
4338 998	1.000000 Head
4339 1162	1.000000 Head
4340 1222	1.000000 Head
4342 1075	1.000000 Head
4344 1151	1.000000 Head
4345 700	1.000000 Head
4346 1131	1.000000 Head
4348 899	1.000000 Head
4349 1170	1.000000 Head
4350 1166	1.000000 Head
4351 834	1.000000 Head
4353 1141	1.000000 Head
4354 1151	1.000000 Head
4356 938	1.000000 Head
4357 701	1.000000 Head
4358 1179	1.000000 Head
4359 693	1.000000 Head
4362 1127	1.000000 Head
4363 1049	1.000000 Head
4364 928	1.000000 Head
4365 900	1.000000 Head
4366 1206	1.000000 Head
4367 1225	1.000000 Head
4369 1238	1.000000 Head
4370 1177	1.000000 Head
4371 1173	1.000000 Head
4372 1278	1.000000 Head
4374 1202	1.000000 Head
4375 1165	1.000000 Head
4376 1117	1.000000 Head
4377 859	1.000000 Head
4378 1222	1.000000 Head
4379 1080	1.000000 Head
4380 944	1.000000 Head
4382 862	1.000000 Head
4383 905	1.000000 Head
4387 981	1.000000 Head
4388 1161	1.000000 Head
4391 1248	1.000000 Head
4394 1113	1.000000 Head
4395 1179	1.000000 Head
4398 1247	1.000000 Head
4404 1131	1.000000 Head
4405 1012	1.000000 Head
4410 870	1.000000 Head
4412 1141	1.000000 Head
4413 1017	1.000000 Head
4414 1112	1.000000 Head
4418 1026	1.000000 Head
4422 1242	1.000000 Head
4423 912	1.000000 Head
4427 1231	1.000000 Head
4431 1234	1.000000 Head
4435 999	1.000000 Head
4436 942	1.000000 Head
4438 1190	1.000000 Head
4439 1161	1.000000 Head
4440 888	1.000000 Head
4442 1263	1.000000 Head
4444 922	1.000000 Head
4445 1124	1.000000 Head
4446 1147	1.000000 Head
4450 1051	1.000000 Head
4452 1192	1.000000 Head
4453 958	1.000000 Head
4454 1151	1.000000 Head
4456 985	1.000000 Head
4458 922	1.000000 Head
4461 1063	1.000000 Head
4463 1034	1.000000 Head
4466 965	1.000000 Head
4467 1165	1.000000 Head
4470 1130	1.000000 Head
4471 971	1.000000 Head
4473 1148	1.000000 Head
4474 911	1.000000 Head
4479 1241	1.000000 Head
4480 1188	1.000000 Head
4482 1131	1.000000 Head
4485 920	1.000000 Head
4487 1201	1.000000 Head
4490 1019	1.000000 Head
4492 920	1.000000 Head
4493 966	1.000000 Head
4495 1287	1.000000 Head
4497 1208	1.000000 Head
4500 928	1.000000 Head
4501 1132	1.000000 Head
4504 1021	1.000000 Head
4507 1082	1.000000 Head
4509 901	1.000000 Head
4510 901	1.000000 Head
4511 1095	1.000000 Head
4512 881	1.000000 Head
4513 1211	1.000000 Head
4517 1169	1.000000 Head
4518 999	1.000000 Head
4519 1281	1.000000 Head
4522 1195	1.000000 Head
4523 1148	1.000000 Head
4526 901	1.000000 Head
4527 901	1.000000 Head
4528 901	1.000000 Head
4529 931	1.000000 Head
4531 927	1.000000 Head
4532 1162	1.000000 Head
4533 1123	1.000000 Head
4536 1169	1.000000 Head
4538 1144	1.000000 Head
4540 899	1.000000 Head
4541 1158	1.000000 Head
4542 900	1.000000 Head
4543 1259	1.000000 Head
4544 881	1.000000 Head
4545 1194	1.000000 Head
4546 1243	1.000000 Head
4547 1144	1.000000 Head
4549 1189	1.000000 Head
4550 1214	1.000000 Head
4554 1026	1.000000 Head
4562 1099	1.000000 Head
4565 940	1.000000 Head
4568 919	1.000000 Head
4569 1154	1.000000 Head
4570 919	1.000000 Head
4571 916	1.000000 Head
4572 919	1.000000 Head
4574 996	1.000000 Head
4575 870	1.000000 Head
4576 870	1.000000 Head
4577 892	1.000000 Head
4578 923	1.000000 Head
4579 1281	1.000000 Head
4581 1091	1.000000 Head
4582 870	1.000000 Head
4586 1158	1.000000 Head
4587 946	1.000000 Head
4590 1187	1.000000 Head
4591 1091	1.000000 Head
4592 1167	1.000000 Head
4593 1083	1.000000 Head
4594 1097	1.000000 Head
4595 978	1.000000 Head
4596 936	1.000000 Head
4597 1190	1.000000 Head
4599 1062	1.000000 Head
4600 1253	1.000000 Head
4602 1069	1.000000 Head
4603 1147	1.000000 Head
4606 1172	1.000000 Head
4607 1024	1.000000 Head
4609 910	1.000000 Head
4610 1170	1.000000 Head
4611 1238	1.000000 Head
4612 1165	1.000000 Head
4614 1220	1.000000 Head
4615 1142	1.000000 Head
4617 1057	1.000000 Head
4620 1059	1.000000 Head
4621 1104	1.000000 Head
4623 1121	1.000000 Head
4626 1146	1.000000 Head
4627 1104	1.000000 Head
4631 1224	1.000000 Head
4632 1014	1.000000 Head
4634 1110	1.000000 Head
4635 1143	1.000000 Head
4636 825	1.000000 Head
4637 1206	1.000000 Head
4641 970	1.000000 Head
4642 1100	1.000000 Head
4644 1161	1.000000 Head
4645 1217	1.000000 Head
4646 859	1.000000 Head
4647 1173	1.000000 Head
4649 1086	1.000000 Head
4650 1062	1.000000 Head
4651 1242	1.000000 Head
4653 1106	1.000000 Head
4655 964	1.000000 Head
4656 927	1.000000 Head
4659 1224	1.000000 Head
4660 962	1.000000 Head
4662 1131	1.000000 Head
4663 981	1.000000 Head
4664 914	1.000000 Head
4665 931	1.000000 Head
4666 1186	1.000000 Head
4667 1144	1.000000 Head
4668 1159	1.000000 Head
4670 1161	1.000000 Head
4671 1151	1.000000 Head
4672 970	1.000000 Head
4673 923	1.000000 Head
4674 1144	1.000000 Head
4675 1171	1.000000 Head
4677 1089	1.000000 Head
4678 1057	1.000000 Head
4679 1065	1.000000 Head
4680 923	1.000000 Head
4681 1079	1.000000 Head
4687 1061	1.000000 Head
4688 1233	1.000000 Head
4689 1035	1.000000 Head
4690 1260	1.000000 Head
4691 1205	1.000000 Head
4693 1130	1.000000 Head
4694 1010	1.000000 Head
4695 1186	1.000000 Head
4696 1279	1.000000 Head
4697 1220	1.000000 Head
4698 1180	1.000000 Head
4700 1240	1.000000 Head
4701 1142	1.000000 Head
4704 1133	1.000000 Head
4705 1060	1.000000 Head
4707 918	1.000000 Head
4708 1183	1.000000 Head
4716 1051	1.000000 Head
4717 912	1.000000 Head
4718 1091	1.000000 Head
4721 905	1.000000 Head
4723 907	1.000000 Head
4724 907	1.000000 Head
4726 1099	1.000000 Head
4728 1153	1.000000 Head
4729 1148	1.000000 Head
4731 1159	1.000000 Head
4750 1229	1.000000 Head
4768 1070	1.000000 Head
4777 1226	1.000000 Head
4787 941	1.000000 Head
4816 1009	1.000000 Head
4818 1189	1.000000 Head
4823 1002	1.000000 Head
4841 1187	1.000000 Head
4850 976	1.000000 Head
4876 1000	1.000000 Head
4889 922	1.000000 Head
4892 923	1.000000 Head
4939 1097	1.000000 Head
5010 1000	1.000000 Head
5042 968	1.000000 Head
5093 970	1.000000 Head
5104 1029	1.000000 Head
5126 1292	1.000000 Head
5138 996	1.000000 Head
5141 1177	1.000000 Head
5168 972	1.000000 Head
5170 1246	1.000000 Head
5174 922	1.000000 Head
5178 970	1.000000 Head
5216 1167	1.000000 Head
5225 1200	1.000000 Head
5229 1315	1.000000 Head
5248 982	1.000000 Head
Apple 31881600	0.000100 Streamflow
* model command line
G-PEST.bat
* model input/output
AppleP.tpl AppleP.DAT
AppleP.ins AppleP.XTR
