pcf
* control data
 restart regularisation
2707 1449 4 18396 16
6  2  single  point  1  0  0
2.000000e+001  -3.000000e+000  3.000000e-001  1.000000e-002  7 999 lamforgive
1.000000e+001  1.000000e+001  1.000000e-003
1.000000e-001 1 noaui
0  1.000000e-002  3  3  1.000000e-002  3
0  0  0   PARSAVEITN
* singular value decomposition
  1
  1715  5.000000e-007
  1
* parameter groups
Kp     relative   1.000000e-002  0.000000e+000  switch  2.000000e+000  parabolic
Kz     relative   1.000000e-002  0.000000e+000  switch  2.000000e+000  parabolic
Rech   relative   1.000000e-002  0.000000e+000  switch  2.000000e+000  parabolic
Cond   relative   1.000000e-002  0.000000e+000  switch  2.000000e+000  parabolic
* parameter data
SFRc log factor 5 1.00E-10 1.00E+10 Cond 1 0 1
GHBc log factor 5 1.00E-10 1.00E+10 Cond 1 0 1
rch_mult log factor 0.7 1.00E-10 1.00E+10 Rech 1 0 1
KpKp89_Q log factor 1.00000000e+00 1.0e-10 1.0e+10 Kp 1.0 0.0 1
KpKp90_Q log factor 1.00000000e+00 1.0e-10 1.0e+10 Kp 1.0 0.0 1
KpKp106_Q log factor 1.00000000e+00 1.0e-10 1.0e+10 Kp 1.0 0.0 1
KpKp107_Q log factor 1.00000000e+00 1.0e-10 1.0e+10 Kp 1.0 0.0 1
KpKp108_Q log factor 1.00000000e+00 1.0e-10 1.0e+10 Kp 1.0 0.0 1
KpKp122_Q log factor 1.00000000e+00 1.0e-10 1.0e+10 Kp 1.0 0.0 1
KpKp123_Q log factor 1.00000000e+00 1.0e-10 1.0e+10 Kp 1.0 0.0 1
KpKp124_Q log factor 1.00000000e+00 1.0e-10 1.0e+10 Kp 1.0 0.0 1
KpKp125_Q log factor 1.00000000e+00 1.0e-10 1.0e+10 Kp 1.0 0.0 1
KpKp126_Q log factor 1.00000000e+00 1.0e-10 1.0e+10 Kp 1.0 0.0 1
KpKp139_Q log factor 1.00000000e+00 1.0e-10 1.0e+10 Kp 1.0 0.0 1
KpKp140_Q log factor 1.00000000e+00 1.0e-10 1.0e+10 Kp 1.0 0.0 1
KpKp141_Q log factor 1.00000000e+00 1.0e-10 1.0e+10 Kp 1.0 0.0 1
KpKp142_Q log factor 1.00000000e+00 1.0e-10 1.0e+10 Kp 1.0 0.0 1
KpKp143_Q log factor 1.00000000e+00 1.0e-10 1.0e+10 Kp 1.0 0.0 1
KpKp144_Q log factor 1.00000000e+00 1.0e-10 1.0e+10 Kp 1.0 0.0 1
KpKp156_Q log factor 1.00000000e+00 1.0e-10 1.0e+10 Kp 1.0 0.0 1
KpKp157_Q log factor 1.00000000e+00 1.0e-10 1.0e+10 Kp 1.0 0.0 1
KpKp158_Q log factor 1.00000000e+00 1.0e-10 1.0e+10 Kp 1.0 0.0 1
KpKp159_Q log factor 1.00000000e+00 1.0e-10 1.0e+10 Kp 1.0 0.0 1
KpKp160_Q log factor 1.00000000e+00 1.0e-10 1.0e+10 Kp 1.0 0.0 1
KpKp161_Q log factor 1.00000000e+00 1.0e-10 1.0e+10 Kp 1.0 0.0 1
KpKp173_Q log factor 1.00000000e+00 1.0e-10 1.0e+10 Kp 1.0 0.0 1
KpKp174_Q log factor 1.00000000e+00 1.0e-10 1.0e+10 Kp 1.0 0.0 1
KpKp175_Q log factor 1.00000000e+00 1.0e-10 1.0e+10 Kp 1.0 0.0 1
KpKp176_Q log factor 1.00000000e+00 1.0e-10 1.0e+10 Kp 1.0 0.0 1
KpKp177_Q log factor 1.00000000e+00 1.0e-10 1.0e+10 Kp 1.0 0.0 1
KpKp191_Q log factor 1.00000000e+00 1.0e-10 1.0e+10 Kp 1.0 0.0 1
KpKp192_Q log factor 1.00000000e+00 1.0e-10 1.0e+10 Kp 1.0 0.0 1
KpKp193_Q log factor 1.00000000e+00 1.0e-10 1.0e+10 Kp 1.0 0.0 1
KpKp202_Q log factor 1.00000000e+00 1.0e-10 1.0e+10 Kp 1.0 0.0 1
KpKp203_Q log factor 1.00000000e+00 1.0e-10 1.0e+10 Kp 1.0 0.0 1
KpKp204_Q log factor 1.00000000e+00 1.0e-10 1.0e+10 Kp 1.0 0.0 1
KpKp205_Q log factor 1.00000000e+00 1.0e-10 1.0e+10 Kp 1.0 0.0 1
KpKp206_Q log factor 1.00000000e+00 1.0e-10 1.0e+10 Kp 1.0 0.0 1
KpKp207_Q log factor 1.00000000e+00 1.0e-10 1.0e+10 Kp 1.0 0.0 1
KpKp208_Q log factor 1.00000000e+00 1.0e-10 1.0e+10 Kp 1.0 0.0 1
KpKp209_Q log factor 1.00000000e+00 1.0e-10 1.0e+10 Kp 1.0 0.0 1
KpKp217_Q log factor 1.00000000e+00 1.0e-10 1.0e+10 Kp 1.0 0.0 1
KpKp218_Q log factor 1.00000000e+00 1.0e-10 1.0e+10 Kp 1.0 0.0 1
KpKp219_Q log factor 1.00000000e+00 1.0e-10 1.0e+10 Kp 1.0 0.0 1
KpKp220_Q log factor 1.00000000e+00 1.0e-10 1.0e+10 Kp 1.0 0.0 1
KpKp221_Q log factor 1.00000000e+00 1.0e-10 1.0e+10 Kp 1.0 0.0 1
KpKp222_Q log factor 1.00000000e+00 1.0e-10 1.0e+10 Kp 1.0 0.0 1
KpKp223_Q log factor 1.00000000e+00 1.0e-10 1.0e+10 Kp 1.0 0.0 1
KpKp224_Q log factor 1.00000000e+00 1.0e-10 1.0e+10 Kp 1.0 0.0 1
KpKp225_Q log factor 1.00000000e+00 1.0e-10 1.0e+10 Kp 1.0 0.0 1
KpKp235_Q log factor 1.00000000e+00 1.0e-10 1.0e+10 Kp 1.0 0.0 1
KpKp236_Q log factor 1.00000000e+00 1.0e-10 1.0e+10 Kp 1.0 0.0 1
KpKp237_Q log factor 1.00000000e+00 1.0e-10 1.0e+10 Kp 1.0 0.0 1
KpKp238_Q log factor 1.00000000e+00 1.0e-10 1.0e+10 Kp 1.0 0.0 1
KpKp239_Q log factor 1.00000000e+00 1.0e-10 1.0e+10 Kp 1.0 0.0 1
KpKp240_Q log factor 1.00000000e+00 1.0e-10 1.0e+10 Kp 1.0 0.0 1
KpKp253_Q log factor 1.00000000e+00 1.0e-10 1.0e+10 Kp 1.0 0.0 1
KpKp255_Q log factor 1.00000000e+00 1.0e-10 1.0e+10 Kp 1.0 0.0 1
KpKp256_Q log factor 1.00000000e+00 1.0e-10 1.0e+10 Kp 1.0 0.0 1
KpKp162_Q log factor 1.00000000e+00 1.0e-10 1.0e+10 Kp 1.0 0.0 1
KpKp178_Q log factor 1.00000000e+00 1.0e-10 1.0e+10 Kp 1.0 0.0 1
KpKp179_Q log factor 1.00000000e+00 1.0e-10 1.0e+10 Kp 1.0 0.0 1
KpKp194_Q log factor 1.00000000e+00 1.0e-10 1.0e+10 Kp 1.0 0.0 1
KpKp195_Q log factor 1.00000000e+00 1.0e-10 1.0e+10 Kp 1.0 0.0 1
KpKp196_Q log factor 1.00000000e+00 1.0e-10 1.0e+10 Kp 1.0 0.0 1
KpKp210_Q log factor 1.00000000e+00 1.0e-10 1.0e+10 Kp 1.0 0.0 1
KpKp211_Q log factor 1.00000000e+00 1.0e-10 1.0e+10 Kp 1.0 0.0 1
KpKp212_Q log factor 1.00000000e+00 1.0e-10 1.0e+10 Kp 1.0 0.0 1
KpKp226_Q log factor 1.00000000e+00 1.0e-10 1.0e+10 Kp 1.0 0.0 1
KpKp227_Q log factor 1.00000000e+00 1.0e-10 1.0e+10 Kp 1.0 0.0 1
KpKp228_Q log factor 1.00000000e+00 1.0e-10 1.0e+10 Kp 1.0 0.0 1
KpKp241_Q log factor 1.00000000e+00 1.0e-10 1.0e+10 Kp 1.0 0.0 1
KpKp242_Q log factor 1.00000000e+00 1.0e-10 1.0e+10 Kp 1.0 0.0 1
KpKp243_Q log factor 1.00000000e+00 1.0e-10 1.0e+10 Kp 1.0 0.0 1
KpKp180_Q log factor 1.00000000e+00 1.0e-10 1.0e+10 Kp 1.0 0.0 1
KpKp197_Q log factor 1.00000000e+00 1.0e-10 1.0e+10 Kp 1.0 0.0 1
KpKp198_Q log factor 1.00000000e+00 1.0e-10 1.0e+10 Kp 1.0 0.0 1
KpKp213_Q log factor 1.00000000e+00 1.0e-10 1.0e+10 Kp 1.0 0.0 1
KpKp214_Q log factor 1.00000000e+00 1.0e-10 1.0e+10 Kp 1.0 0.0 1
KpKp215_Q log factor 1.00000000e+00 1.0e-10 1.0e+10 Kp 1.0 0.0 1
KpKp216_Q log factor 1.00000000e+00 1.0e-10 1.0e+10 Kp 1.0 0.0 1
KpKp229_Q log factor 1.00000000e+00 1.0e-10 1.0e+10 Kp 1.0 0.0 1
KpKp230_Q log factor 1.00000000e+00 1.0e-10 1.0e+10 Kp 1.0 0.0 1
KpKp231_Q log factor 1.00000000e+00 1.0e-10 1.0e+10 Kp 1.0 0.0 1
KpKp232_Q log factor 1.00000000e+00 1.0e-10 1.0e+10 Kp 1.0 0.0 1
KpKp233_Q log factor 1.00000000e+00 1.0e-10 1.0e+10 Kp 1.0 0.0 1
KpKp234_Q log factor 1.00000000e+00 1.0e-10 1.0e+10 Kp 1.0 0.0 1
KpKp245_Q log factor 1.00000000e+00 1.0e-10 1.0e+10 Kp 1.0 0.0 1
KpKp246_Q log factor 1.00000000e+00 1.0e-10 1.0e+10 Kp 1.0 0.0 1
KpKp247_Q log factor 1.00000000e+00 1.0e-10 1.0e+10 Kp 1.0 0.0 1
KpKp248_Q log factor 1.00000000e+00 1.0e-10 1.0e+10 Kp 1.0 0.0 1
KpKp249_Q log factor 1.00000000e+00 1.0e-10 1.0e+10 Kp 1.0 0.0 1
KpKp250_Q log factor 1.00000000e+00 1.0e-10 1.0e+10 Kp 1.0 0.0 1
KpKp251_Q log factor 1.00000000e+00 1.0e-10 1.0e+10 Kp 1.0 0.0 1
KpKp252_Q log factor 1.00000000e+00 1.0e-10 1.0e+10 Kp 1.0 0.0 1
KpKp254_Q log factor 1.00000000e+00 1.0e-10 1.0e+10 Kp 1.0 0.0 1
KpKp257_Q log factor 1.00000000e+00 1.0e-10 1.0e+10 Kp 1.0 0.0 1
KpKp258_Q log factor 1.00000000e+00 1.0e-10 1.0e+10 Kp 1.0 0.0 1
KpKp259_Q log factor 1.00000000e+00 1.0e-10 1.0e+10 Kp 1.0 0.0 1
KpKp260_Q log factor 1.00000000e+00 1.0e-10 1.0e+10 Kp 1.0 0.0 1
KpKp261_Q log factor 1.00000000e+00 1.0e-10 1.0e+10 Kp 1.0 0.0 1
KpKp262_Q log factor 1.00000000e+00 1.0e-10 1.0e+10 Kp 1.0 0.0 1
KpKp263_Q log factor 1.00000000e+00 1.0e-10 1.0e+10 Kp 1.0 0.0 1
KpKp264_Q log factor 1.00000000e+00 1.0e-10 1.0e+10 Kp 1.0 0.0 1
KpKp265_Q log factor 1.00000000e+00 1.0e-10 1.0e+10 Kp 1.0 0.0 1
KpKp266_Q log factor 1.00000000e+00 1.0e-10 1.0e+10 Kp 1.0 0.0 1
KpKp267_Q log factor 1.00000000e+00 1.0e-10 1.0e+10 Kp 1.0 0.0 1
KpKp268_Q log factor 1.00000000e+00 1.0e-10 1.0e+10 Kp 1.0 0.0 1
KpKp269_Q log factor 1.00000000e+00 1.0e-10 1.0e+10 Kp 1.0 0.0 1
KpKp270_Q log factor 1.00000000e+00 1.0e-10 1.0e+10 Kp 1.0 0.0 1
KpKp271_Q log factor 1.00000000e+00 1.0e-10 1.0e+10 Kp 1.0 0.0 1
KpKp272_Q log factor 1.00000000e+00 1.0e-10 1.0e+10 Kp 1.0 0.0 1
KpKp273_Q log factor 1.00000000e+00 1.0e-10 1.0e+10 Kp 1.0 0.0 1
KpKp274_Q log factor 1.00000000e+00 1.0e-10 1.0e+10 Kp 1.0 0.0 1
KpKp275_Q log factor 1.00000000e+00 1.0e-10 1.0e+10 Kp 1.0 0.0 1
KpKp276_Q log factor 1.00000000e+00 1.0e-10 1.0e+10 Kp 1.0 0.0 1
KpKp277_Q log factor 1.00000000e+00 1.0e-10 1.0e+10 Kp 1.0 0.0 1
KpKp278_Q log factor 1.00000000e+00 1.0e-10 1.0e+10 Kp 1.0 0.0 1
KpKp279_Q log factor 1.00000000e+00 1.0e-10 1.0e+10 Kp 1.0 0.0 1
KpKp280_Q log factor 1.00000000e+00 1.0e-10 1.0e+10 Kp 1.0 0.0 1
KpKp281_Q log factor 1.00000000e+00 1.0e-10 1.0e+10 Kp 1.0 0.0 1
KpKp282_Q log factor 1.00000000e+00 1.0e-10 1.0e+10 Kp 1.0 0.0 1
KpKp283_Q log factor 1.00000000e+00 1.0e-10 1.0e+10 Kp 1.0 0.0 1
KpKp284_Q log factor 1.00000000e+00 1.0e-10 1.0e+10 Kp 1.0 0.0 1
KpKp285_Q log factor 1.00000000e+00 1.0e-10 1.0e+10 Kp 1.0 0.0 1
KpKp286_Q log factor 1.00000000e+00 1.0e-10 1.0e+10 Kp 1.0 0.0 1
KpKp287_Q log factor 1.00000000e+00 1.0e-10 1.0e+10 Kp 1.0 0.0 1
KpKp288_Q log factor 1.00000000e+00 1.0e-10 1.0e+10 Kp 1.0 0.0 1
KpKp289_Q log factor 1.00000000e+00 1.0e-10 1.0e+10 Kp 1.0 0.0 1
KpKp290_Q log factor 1.00000000e+00 1.0e-10 1.0e+10 Kp 1.0 0.0 1
KpKp291_Q log factor 1.00000000e+00 1.0e-10 1.0e+10 Kp 1.0 0.0 1
KpKp292_Q log factor 1.00000000e+00 1.0e-10 1.0e+10 Kp 1.0 0.0 1
KpKp293_Q log factor 1.00000000e+00 1.0e-10 1.0e+10 Kp 1.0 0.0 1
KpKp294_Q log factor 1.00000000e+00 1.0e-10 1.0e+10 Kp 1.0 0.0 1
KpKp295_Q log factor 1.00000000e+00 1.0e-10 1.0e+10 Kp 1.0 0.0 1
KpKp296_Q log factor 1.00000000e+00 1.0e-10 1.0e+10 Kp 1.0 0.0 1
KpKp297_Q log factor 1.00000000e+00 1.0e-10 1.0e+10 Kp 1.0 0.0 1
KpKp298_Q log factor 1.00000000e+00 1.0e-10 1.0e+10 Kp 1.0 0.0 1
KpKp299_Q log factor 1.00000000e+00 1.0e-10 1.0e+10 Kp 1.0 0.0 1
KpKp300_Q log factor 1.00000000e+00 1.0e-10 1.0e+10 Kp 1.0 0.0 1
KpKp301_Q log factor 1.00000000e+00 1.0e-10 1.0e+10 Kp 1.0 0.0 1
KpKp302_Q log factor 1.00000000e+00 1.0e-10 1.0e+10 Kp 1.0 0.0 1
KpKp303_Q log factor 1.00000000e+00 1.0e-10 1.0e+10 Kp 1.0 0.0 1
KpKp304_Q log factor 1.00000000e+00 1.0e-10 1.0e+10 Kp 1.0 0.0 1
KpKp305_Q log factor 1.00000000e+00 1.0e-10 1.0e+10 Kp 1.0 0.0 1
KpKp306_Q log factor 1.00000000e+00 1.0e-10 1.0e+10 Kp 1.0 0.0 1
KpKp307_Q log factor 1.00000000e+00 1.0e-10 1.0e+10 Kp 1.0 0.0 1
KpKp308_Q log factor 1.00000000e+00 1.0e-10 1.0e+10 Kp 1.0 0.0 1
KpKp309_Q log factor 1.00000000e+00 1.0e-10 1.0e+10 Kp 1.0 0.0 1
KpKp310_Q log factor 1.00000000e+00 1.0e-10 1.0e+10 Kp 1.0 0.0 1
KpKp311_Q log factor 1.00000000e+00 1.0e-10 1.0e+10 Kp 1.0 0.0 1
KpKp312_Q log factor 1.00000000e+00 1.0e-10 1.0e+10 Kp 1.0 0.0 1
KpKp313_Q log factor 1.00000000e+00 1.0e-10 1.0e+10 Kp 1.0 0.0 1
KpKp314_Q log factor 1.00000000e+00 1.0e-10 1.0e+10 Kp 1.0 0.0 1
KpKp315_Q log factor 1.00000000e+00 1.0e-10 1.0e+10 Kp 1.0 0.0 1
KpKp316_Q log factor 1.00000000e+00 1.0e-10 1.0e+10 Kp 1.0 0.0 1
KpKp317_Q log factor 1.00000000e+00 1.0e-10 1.0e+10 Kp 1.0 0.0 1
KpKp318_Q log factor 1.00000000e+00 1.0e-10 1.0e+10 Kp 1.0 0.0 1
KpKp319_Q log factor 1.00000000e+00 1.0e-10 1.0e+10 Kp 1.0 0.0 1
KpKp320_Q log factor 1.00000000e+00 1.0e-10 1.0e+10 Kp 1.0 0.0 1
KpKp321_Q log factor 1.00000000e+00 1.0e-10 1.0e+10 Kp 1.0 0.0 1
KpKp322_Q log factor 1.00000000e+00 1.0e-10 1.0e+10 Kp 1.0 0.0 1
KpKp323_Q log factor 1.00000000e+00 1.0e-10 1.0e+10 Kp 1.0 0.0 1
KpKp324_Q log factor 1.00000000e+00 1.0e-10 1.0e+10 Kp 1.0 0.0 1
KpKp1_Q log factor 1.00000000e+00 1.0e-10 1.0e+10 Kp 1.0 0.0 1
KpKp2_Q log factor 1.00000000e+00 1.0e-10 1.0e+10 Kp 1.0 0.0 1
KpKp3_Q log factor 1.00000000e+00 1.0e-10 1.0e+10 Kp 1.0 0.0 1
KpKp4_Q log factor 1.00000000e+00 1.0e-10 1.0e+10 Kp 1.0 0.0 1
KpKp5_Q tied factor 1.00000000e+00 1.0e-10 1.0e+10 Kp 1.0 0.0 1
KpKp6_Q tied factor 1.00000000e+00 1.0e-10 1.0e+10 Kp 1.0 0.0 1
KpKp7_Q tied factor 1.00000000e+00 1.0e-10 1.0e+10 Kp 1.0 0.0 1
KpKp8_Q tied factor 1.00000000e+00 1.0e-10 1.0e+10 Kp 1.0 0.0 1
KpKp9_Q tied factor 1.00000000e+00 1.0e-10 1.0e+10 Kp 1.0 0.0 1
KpKp10_Q tied factor 1.00000000e+00 1.0e-10 1.0e+10 Kp 1.0 0.0 1
KpKp11_Q tied factor 1.00000000e+00 1.0e-10 1.0e+10 Kp 1.0 0.0 1
KpKp12_Q tied factor 1.00000000e+00 1.0e-10 1.0e+10 Kp 1.0 0.0 1
KpKp13_Q tied factor 1.00000000e+00 1.0e-10 1.0e+10 Kp 1.0 0.0 1
KpKp14_Q tied factor 1.00000000e+00 1.0e-10 1.0e+10 Kp 1.0 0.0 1
KpKp15_Q tied factor 1.00000000e+00 1.0e-10 1.0e+10 Kp 1.0 0.0 1
KpKp16_Q tied factor 1.00000000e+00 1.0e-10 1.0e+10 Kp 1.0 0.0 1
KpKp17_Q tied factor 1.00000000e+00 1.0e-10 1.0e+10 Kp 1.0 0.0 1
KpKp18_Q tied factor 1.00000000e+00 1.0e-10 1.0e+10 Kp 1.0 0.0 1
KpKp19_Q log factor 1.00000000e+00 1.0e-10 1.0e+10 Kp 1.0 0.0 1
KpKp20_Q log factor 1.00000000e+00 1.0e-10 1.0e+10 Kp 1.0 0.0 1
KpKp21_Q log factor 1.00000000e+00 1.0e-10 1.0e+10 Kp 1.0 0.0 1
KpKp22_Q log factor 1.00000000e+00 1.0e-10 1.0e+10 Kp 1.0 0.0 1
KpKp23_Q tied factor 1.00000000e+00 1.0e-10 1.0e+10 Kp 1.0 0.0 1
KpKp24_Q tied factor 1.00000000e+00 1.0e-10 1.0e+10 Kp 1.0 0.0 1
KpKp25_Q tied factor 1.00000000e+00 1.0e-10 1.0e+10 Kp 1.0 0.0 1
KpKp26_Q tied factor 1.00000000e+00 1.0e-10 1.0e+10 Kp 1.0 0.0 1
KpKp27_Q tied factor 1.00000000e+00 1.0e-10 1.0e+10 Kp 1.0 0.0 1
KpKp28_Q tied factor 1.00000000e+00 1.0e-10 1.0e+10 Kp 1.0 0.0 1
KpKp29_Q tied factor 1.00000000e+00 1.0e-10 1.0e+10 Kp 1.0 0.0 1
KpKp30_Q tied factor 1.00000000e+00 1.0e-10 1.0e+10 Kp 1.0 0.0 1
KpKp31_Q tied factor 1.00000000e+00 1.0e-10 1.0e+10 Kp 1.0 0.0 1
KpKp32_Q tied factor 1.00000000e+00 1.0e-10 1.0e+10 Kp 1.0 0.0 1
KpKp33_Q tied factor 1.00000000e+00 1.0e-10 1.0e+10 Kp 1.0 0.0 1
KpKp34_Q tied factor 1.00000000e+00 1.0e-10 1.0e+10 Kp 1.0 0.0 1
KpKp35_Q tied factor 1.00000000e+00 1.0e-10 1.0e+10 Kp 1.0 0.0 1
KpKp36_Q tied factor 1.00000000e+00 1.0e-10 1.0e+10 Kp 1.0 0.0 1
KpKp37_Q log factor 1.00000000e+00 1.0e-10 1.0e+10 Kp 1.0 0.0 1
KpKp38_Q log factor 1.00000000e+00 1.0e-10 1.0e+10 Kp 1.0 0.0 1
KpKp39_Q log factor 1.00000000e+00 1.0e-10 1.0e+10 Kp 1.0 0.0 1
KpKp40_Q tied factor 1.00000000e+00 1.0e-10 1.0e+10 Kp 1.0 0.0 1
KpKp41_Q tied factor 1.00000000e+00 1.0e-10 1.0e+10 Kp 1.0 0.0 1
KpKp42_Q tied factor 1.00000000e+00 1.0e-10 1.0e+10 Kp 1.0 0.0 1
KpKp43_Q log factor 1.00000000e+00 1.0e-10 1.0e+10 Kp 1.0 0.0 1
KpKp44_Q log factor 1.00000000e+00 1.0e-10 1.0e+10 Kp 1.0 0.0 1
KpKp45_Q log factor 1.00000000e+00 1.0e-10 1.0e+10 Kp 1.0 0.0 1
KpKp46_Q tied factor 1.00000000e+00 1.0e-10 1.0e+10 Kp 1.0 0.0 1
KpKp47_Q tied factor 1.00000000e+00 1.0e-10 1.0e+10 Kp 1.0 0.0 1
KpKp48_Q tied factor 1.00000000e+00 1.0e-10 1.0e+10 Kp 1.0 0.0 1
KpKp49_Q tied factor 1.00000000e+00 1.0e-10 1.0e+10 Kp 1.0 0.0 1
KpKp50_Q tied factor 1.00000000e+00 1.0e-10 1.0e+10 Kp 1.0 0.0 1
KpKp51_Q tied factor 1.00000000e+00 1.0e-10 1.0e+10 Kp 1.0 0.0 1
KpKp52_Q tied factor 1.00000000e+00 1.0e-10 1.0e+10 Kp 1.0 0.0 1
KpKp53_Q tied factor 1.00000000e+00 1.0e-10 1.0e+10 Kp 1.0 0.0 1
KpKp54_Q tied factor 1.00000000e+00 1.0e-10 1.0e+10 Kp 1.0 0.0 1
KpKp55_Q log factor 1.00000000e+00 1.0e-10 1.0e+10 Kp 1.0 0.0 1
KpKp56_Q log factor 1.00000000e+00 1.0e-10 1.0e+10 Kp 1.0 0.0 1
KpKp57_Q log factor 1.00000000e+00 1.0e-10 1.0e+10 Kp 1.0 0.0 1
KpKp58_Q tied factor 1.00000000e+00 1.0e-10 1.0e+10 Kp 1.0 0.0 1
KpKp59_Q tied factor 1.00000000e+00 1.0e-10 1.0e+10 Kp 1.0 0.0 1
KpKp60_Q log factor 1.00000000e+00 1.0e-10 1.0e+10 Kp 1.0 0.0 1
KpKp61_Q log factor 1.00000000e+00 1.0e-10 1.0e+10 Kp 1.0 0.0 1
KpKp62_Q log factor 1.00000000e+00 1.0e-10 1.0e+10 Kp 1.0 0.0 1
KpKp63_Q log factor 1.00000000e+00 1.0e-10 1.0e+10 Kp 1.0 0.0 1
KpKp64_Q log factor 1.00000000e+00 1.0e-10 1.0e+10 Kp 1.0 0.0 1
KpKp65_Q tied factor 1.00000000e+00 1.0e-10 1.0e+10 Kp 1.0 0.0 1
KpKp66_Q tied factor 1.00000000e+00 1.0e-10 1.0e+10 Kp 1.0 0.0 1
KpKp67_Q tied factor 1.00000000e+00 1.0e-10 1.0e+10 Kp 1.0 0.0 1
KpKp68_Q tied factor 1.00000000e+00 1.0e-10 1.0e+10 Kp 1.0 0.0 1
KpKp69_Q tied factor 1.00000000e+00 1.0e-10 1.0e+10 Kp 1.0 0.0 1
KpKp70_Q tied factor 1.00000000e+00 1.0e-10 1.0e+10 Kp 1.0 0.0 1
KpKp71_Q tied factor 1.00000000e+00 1.0e-10 1.0e+10 Kp 1.0 0.0 1
KpKp72_Q log factor 1.00000000e+00 1.0e-10 1.0e+10 Kp 1.0 0.0 1
KpKp73_Q log factor 1.00000000e+00 1.0e-10 1.0e+10 Kp 1.0 0.0 1
KpKp74_Q log factor 1.00000000e+00 1.0e-10 1.0e+10 Kp 1.0 0.0 1
KpKp75_Q log factor 1.00000000e+00 1.0e-10 1.0e+10 Kp 1.0 0.0 1
KpKp76_Q log factor 1.00000000e+00 1.0e-10 1.0e+10 Kp 1.0 0.0 1
KpKp77_Q log factor 1.00000000e+00 1.0e-10 1.0e+10 Kp 1.0 0.0 1
KpKp78_Q log factor 1.00000000e+00 1.0e-10 1.0e+10 Kp 1.0 0.0 1
KpKp79_Q log factor 1.00000000e+00 1.0e-10 1.0e+10 Kp 1.0 0.0 1
KpKp80_Q log factor 1.00000000e+00 1.0e-10 1.0e+10 Kp 1.0 0.0 1
KpKp81_Q log factor 1.00000000e+00 1.0e-10 1.0e+10 Kp 1.0 0.0 1
KpKp82_Q log factor 1.00000000e+00 1.0e-10 1.0e+10 Kp 1.0 0.0 1
KpKp83_Q log factor 1.00000000e+00 1.0e-10 1.0e+10 Kp 1.0 0.0 1
KpKp84_Q log factor 1.00000000e+00 1.0e-10 1.0e+10 Kp 1.0 0.0 1
KpKp85_Q log factor 1.00000000e+00 1.0e-10 1.0e+10 Kp 1.0 0.0 1
KpKp86_Q tied factor 1.00000000e+00 1.0e-10 1.0e+10 Kp 1.0 0.0 1
KpKp87_Q tied factor 1.00000000e+00 1.0e-10 1.0e+10 Kp 1.0 0.0 1
KpKp88_Q log factor 1.00000000e+00 1.0e-10 1.0e+10 Kp 1.0 0.0 1
KpKp91_Q log factor 1.00000000e+00 1.0e-10 1.0e+10 Kp 1.0 0.0 1
KpKp92_Q log factor 1.00000000e+00 1.0e-10 1.0e+10 Kp 1.0 0.0 1
KpKp93_Q log factor 1.00000000e+00 1.0e-10 1.0e+10 Kp 1.0 0.0 1
KpKp94_Q log factor 1.00000000e+00 1.0e-10 1.0e+10 Kp 1.0 0.0 1
KpKp95_Q log factor 1.00000000e+00 1.0e-10 1.0e+10 Kp 1.0 0.0 1
KpKp96_Q log factor 1.00000000e+00 1.0e-10 1.0e+10 Kp 1.0 0.0 1
KpKp97_Q log factor 1.00000000e+00 1.0e-10 1.0e+10 Kp 1.0 0.0 1
KpKp98_Q log factor 1.00000000e+00 1.0e-10 1.0e+10 Kp 1.0 0.0 1
KpKp99_Q log factor 1.00000000e+00 1.0e-10 1.0e+10 Kp 1.0 0.0 1
KpKp100_Q log factor 1.00000000e+00 1.0e-10 1.0e+10 Kp 1.0 0.0 1
KpKp101_Q log factor 1.00000000e+00 1.0e-10 1.0e+10 Kp 1.0 0.0 1
KpKp102_Q log factor 1.00000000e+00 1.0e-10 1.0e+10 Kp 1.0 0.0 1
KpKp103_Q log factor 1.00000000e+00 1.0e-10 1.0e+10 Kp 1.0 0.0 1
KpKp104_Q log factor 1.00000000e+00 1.0e-10 1.0e+10 Kp 1.0 0.0 1
KpKp105_Q log factor 1.00000000e+00 1.0e-10 1.0e+10 Kp 1.0 0.0 1
KpKp109_Q log factor 1.00000000e+00 1.0e-10 1.0e+10 Kp 1.0 0.0 1
KpKp110_Q log factor 1.00000000e+00 1.0e-10 1.0e+10 Kp 1.0 0.0 1
KpKp111_Q log factor 1.00000000e+00 1.0e-10 1.0e+10 Kp 1.0 0.0 1
KpKp112_Q log factor 1.00000000e+00 1.0e-10 1.0e+10 Kp 1.0 0.0 1
KpKp113_Q log factor 1.00000000e+00 1.0e-10 1.0e+10 Kp 1.0 0.0 1
KpKp114_Q log factor 1.00000000e+00 1.0e-10 1.0e+10 Kp 1.0 0.0 1
KpKp115_Q log factor 1.00000000e+00 1.0e-10 1.0e+10 Kp 1.0 0.0 1
KpKp116_Q log factor 1.00000000e+00 1.0e-10 1.0e+10 Kp 1.0 0.0 1
KpKp117_Q log factor 1.00000000e+00 1.0e-10 1.0e+10 Kp 1.0 0.0 1
KpKp118_Q log factor 1.00000000e+00 1.0e-10 1.0e+10 Kp 1.0 0.0 1
KpKp119_Q log factor 1.00000000e+00 1.0e-10 1.0e+10 Kp 1.0 0.0 1
KpKp120_Q log factor 1.00000000e+00 1.0e-10 1.0e+10 Kp 1.0 0.0 1
KpKp121_Q log factor 1.00000000e+00 1.0e-10 1.0e+10 Kp 1.0 0.0 1
KpKp127_Q log factor 1.00000000e+00 1.0e-10 1.0e+10 Kp 1.0 0.0 1
KpKp128_Q log factor 1.00000000e+00 1.0e-10 1.0e+10 Kp 1.0 0.0 1
KpKp129_Q log factor 1.00000000e+00 1.0e-10 1.0e+10 Kp 1.0 0.0 1
KpKp130_Q log factor 1.00000000e+00 1.0e-10 1.0e+10 Kp 1.0 0.0 1
KpKp131_Q log factor 1.00000000e+00 1.0e-10 1.0e+10 Kp 1.0 0.0 1
KpKp132_Q log factor 1.00000000e+00 1.0e-10 1.0e+10 Kp 1.0 0.0 1
KpKp133_Q log factor 1.00000000e+00 1.0e-10 1.0e+10 Kp 1.0 0.0 1
KpKp134_Q log factor 1.00000000e+00 1.0e-10 1.0e+10 Kp 1.0 0.0 1
KpKp135_Q log factor 1.00000000e+00 1.0e-10 1.0e+10 Kp 1.0 0.0 1
KpKp136_Q log factor 1.00000000e+00 1.0e-10 1.0e+10 Kp 1.0 0.0 1
KpKp137_Q log factor 1.00000000e+00 1.0e-10 1.0e+10 Kp 1.0 0.0 1
KpKp138_Q log factor 1.00000000e+00 1.0e-10 1.0e+10 Kp 1.0 0.0 1
KpKp145_Q log factor 1.00000000e+00 1.0e-10 1.0e+10 Kp 1.0 0.0 1
KpKp146_Q log factor 1.00000000e+00 1.0e-10 1.0e+10 Kp 1.0 0.0 1
KpKp147_Q log factor 1.00000000e+00 1.0e-10 1.0e+10 Kp 1.0 0.0 1
KpKp148_Q log factor 1.00000000e+00 1.0e-10 1.0e+10 Kp 1.0 0.0 1
KpKp149_Q log factor 1.00000000e+00 1.0e-10 1.0e+10 Kp 1.0 0.0 1
KpKp150_Q log factor 1.00000000e+00 1.0e-10 1.0e+10 Kp 1.0 0.0 1
KpKp151_Q log factor 1.00000000e+00 1.0e-10 1.0e+10 Kp 1.0 0.0 1
KpKp152_Q log factor 1.00000000e+00 1.0e-10 1.0e+10 Kp 1.0 0.0 1
KpKp153_Q log factor 1.00000000e+00 1.0e-10 1.0e+10 Kp 1.0 0.0 1
KpKp154_Q log factor 1.00000000e+00 1.0e-10 1.0e+10 Kp 1.0 0.0 1
KpKp155_Q log factor 1.00000000e+00 1.0e-10 1.0e+10 Kp 1.0 0.0 1
KpKp163_Q log factor 1.00000000e+00 1.0e-10 1.0e+10 Kp 1.0 0.0 1
KpKp164_Q log factor 1.00000000e+00 1.0e-10 1.0e+10 Kp 1.0 0.0 1
KpKp165_Q log factor 1.00000000e+00 1.0e-10 1.0e+10 Kp 1.0 0.0 1
KpKp166_Q log factor 1.00000000e+00 1.0e-10 1.0e+10 Kp 1.0 0.0 1
KpKp167_Q log factor 1.00000000e+00 1.0e-10 1.0e+10 Kp 1.0 0.0 1
KpKp168_Q log factor 1.00000000e+00 1.0e-10 1.0e+10 Kp 1.0 0.0 1
KpKp169_Q log factor 1.00000000e+00 1.0e-10 1.0e+10 Kp 1.0 0.0 1
KpKp170_Q log factor 1.00000000e+00 1.0e-10 1.0e+10 Kp 1.0 0.0 1
KpKp171_Q log factor 1.00000000e+00 1.0e-10 1.0e+10 Kp 1.0 0.0 1
KpKp172_Q log factor 1.00000000e+00 1.0e-10 1.0e+10 Kp 1.0 0.0 1
KpKp181_Q log factor 1.00000000e+00 1.0e-10 1.0e+10 Kp 1.0 0.0 1
KpKp182_Q log factor 1.00000000e+00 1.0e-10 1.0e+10 Kp 1.0 0.0 1
KpKp183_Q log factor 1.00000000e+00 1.0e-10 1.0e+10 Kp 1.0 0.0 1
KpKp184_Q log factor 1.00000000e+00 1.0e-10 1.0e+10 Kp 1.0 0.0 1
KpKp185_Q log factor 1.00000000e+00 1.0e-10 1.0e+10 Kp 1.0 0.0 1
KpKp186_Q log factor 1.00000000e+00 1.0e-10 1.0e+10 Kp 1.0 0.0 1
KpKp187_Q log factor 1.00000000e+00 1.0e-10 1.0e+10 Kp 1.0 0.0 1
KpKp188_Q log factor 1.00000000e+00 1.0e-10 1.0e+10 Kp 1.0 0.0 1
KpKp189_Q log factor 1.00000000e+00 1.0e-10 1.0e+10 Kp 1.0 0.0 1
KpKp190_Q log factor 1.00000000e+00 1.0e-10 1.0e+10 Kp 1.0 0.0 1
KpKp199_Q log factor 1.00000000e+00 1.0e-10 1.0e+10 Kp 1.0 0.0 1
KpKp200_Q log factor 1.00000000e+00 1.0e-10 1.0e+10 Kp 1.0 0.0 1
KpKp201_Q log factor 1.00000000e+00 1.0e-10 1.0e+10 Kp 1.0 0.0 1
KpKp89_Ss3 log factor 3.00000000e+00 1.0e-10 1.0e+10 Kp 1.0 0.0 1
KpKp90_VL3 log factor 3.90000000e+00 1.0e-10 1.0e+10 Kp 1.0 0.0 1
KpKp106_Ss3 log factor 3.00000000e+00 1.0e-10 1.0e+10 Kp 1.0 0.0 1
KpKp107_VL3 log factor 3.90000000e+00 1.0e-10 1.0e+10 Kp 1.0 0.0 1
KpKp108_VL3 log factor 3.90000000e+00 1.0e-10 1.0e+10 Kp 1.0 0.0 1
KpKp122_Ss3 log factor 3.00000000e+00 1.0e-10 1.0e+10 Kp 1.0 0.0 1
KpKp123_Ss3 log factor 3.00000000e+00 1.0e-10 1.0e+10 Kp 1.0 0.0 1
KpKp124_VL3 log factor 3.90000000e+00 1.0e-10 1.0e+10 Kp 1.0 0.0 1
KpKp125_VL3 log factor 3.90000000e+00 1.0e-10 1.0e+10 Kp 1.0 0.0 1
KpKp126_VL3 log factor 3.90000000e+00 1.0e-10 1.0e+10 Kp 1.0 0.0 1
KpKp139_Ss3 log factor 3.00000000e+00 1.0e-10 1.0e+10 Kp 1.0 0.0 1
KpKp140_VL3 log factor 3.90000000e+00 1.0e-10 1.0e+10 Kp 1.0 0.0 1
KpKp141_VL3 log factor 3.90000000e+00 1.0e-10 1.0e+10 Kp 1.0 0.0 1
KpKp142_VL3 log factor 3.90000000e+00 1.0e-10 1.0e+10 Kp 1.0 0.0 1
KpKp143_VL3 log factor 3.90000000e+00 1.0e-10 1.0e+10 Kp 1.0 0.0 1
KpKp144_VL3 log factor 3.90000000e+00 1.0e-10 1.0e+10 Kp 1.0 0.0 1
KpKp156_Ss3 log factor 3.00000000e+00 1.0e-10 1.0e+10 Kp 1.0 0.0 1
KpKp157_VL3 log factor 3.90000000e+00 1.0e-10 1.0e+10 Kp 1.0 0.0 1
KpKp158_VL3 log factor 3.90000000e+00 1.0e-10 1.0e+10 Kp 1.0 0.0 1
KpKp159_VL3 log factor 3.90000000e+00 1.0e-10 1.0e+10 Kp 1.0 0.0 1
KpKp160_VL3 log factor 3.90000000e+00 1.0e-10 1.0e+10 Kp 1.0 0.0 1
KpKp161_VL3 log factor 3.90000000e+00 1.0e-10 1.0e+10 Kp 1.0 0.0 1
KpKp173_Ss3 log factor 3.00000000e+00 1.0e-10 1.0e+10 Kp 1.0 0.0 1
KpKp174_VL3 log factor 3.90000000e+00 1.0e-10 1.0e+10 Kp 1.0 0.0 1
KpKp175_VL3 log factor 3.90000000e+00 1.0e-10 1.0e+10 Kp 1.0 0.0 1
KpKp176_VL3 log factor 3.90000000e+00 1.0e-10 1.0e+10 Kp 1.0 0.0 1
KpKp177_VL3 log factor 3.90000000e+00 1.0e-10 1.0e+10 Kp 1.0 0.0 1
KpKp191_Ss3 log factor 3.00000000e+00 1.0e-10 1.0e+10 Kp 1.0 0.0 1
KpKp192_VL3 log factor 3.90000000e+00 1.0e-10 1.0e+10 Kp 1.0 0.0 1
KpKp193_VL3 log factor 3.90000000e+00 1.0e-10 1.0e+10 Kp 1.0 0.0 1
KpKp202_Ss3 log factor 3.00000000e+00 1.0e-10 1.0e+10 Kp 1.0 0.0 1
KpKp203_Ss3 log factor 3.00000000e+00 1.0e-10 1.0e+10 Kp 1.0 0.0 1
KpKp204_VL3 log factor 3.90000000e+00 1.0e-10 1.0e+10 Kp 1.0 0.0 1
KpKp205_Ss3 log factor 3.00000000e+00 1.0e-10 1.0e+10 Kp 1.0 0.0 1
KpKp206_Ss3 log factor 3.00000000e+00 1.0e-10 1.0e+10 Kp 1.0 0.0 1
KpKp207_Ss3 log factor 3.00000000e+00 1.0e-10 1.0e+10 Kp 1.0 0.0 1
KpKp208_Ss3 log factor 3.00000000e+00 1.0e-10 1.0e+10 Kp 1.0 0.0 1
KpKp209_VL3 log factor 3.90000000e+00 1.0e-10 1.0e+10 Kp 1.0 0.0 1
KpKp217_VL3 log factor 3.90000000e+00 1.0e-10 1.0e+10 Kp 1.0 0.0 1
KpKp218_VL3 log factor 3.90000000e+00 1.0e-10 1.0e+10 Kp 1.0 0.0 1
KpKp219_Ss3 log factor 3.00000000e+00 1.0e-10 1.0e+10 Kp 1.0 0.0 1
KpKp220_VL3 log factor 3.90000000e+00 1.0e-10 1.0e+10 Kp 1.0 0.0 1
KpKp221_VL3 log factor 3.90000000e+00 1.0e-10 1.0e+10 Kp 1.0 0.0 1
KpKp222_VL3 log factor 3.90000000e+00 1.0e-10 1.0e+10 Kp 1.0 0.0 1
KpKp223_VL3 log factor 3.90000000e+00 1.0e-10 1.0e+10 Kp 1.0 0.0 1
KpKp224_VL3 log factor 3.90000000e+00 1.0e-10 1.0e+10 Kp 1.0 0.0 1
KpKp225_VL3 log factor 3.90000000e+00 1.0e-10 1.0e+10 Kp 1.0 0.0 1
KpKp235_VL3 log factor 3.90000000e+00 1.0e-10 1.0e+10 Kp 1.0 0.0 1
KpKp236_VL3 log factor 3.90000000e+00 1.0e-10 1.0e+10 Kp 1.0 0.0 1
KpKp237_VL3 log factor 3.90000000e+00 1.0e-10 1.0e+10 Kp 1.0 0.0 1
KpKp238_VL3 log factor 3.90000000e+00 1.0e-10 1.0e+10 Kp 1.0 0.0 1
KpKp239_VL3 log factor 3.90000000e+00 1.0e-10 1.0e+10 Kp 1.0 0.0 1
KpKp240_VL3 log factor 3.90000000e+00 1.0e-10 1.0e+10 Kp 1.0 0.0 1
KpKp253_VL3 log factor 3.90000000e+00 1.0e-10 1.0e+10 Kp 1.0 0.0 1
KpKp255_VL3 log factor 3.90000000e+00 1.0e-10 1.0e+10 Kp 1.0 0.0 1
KpKp256_VL3 log factor 3.90000000e+00 1.0e-10 1.0e+10 Kp 1.0 0.0 1
KpKp162_VL3 log factor 3.90000000e+00 1.0e-10 1.0e+10 Kp 1.0 0.0 1
KpKp178_VL3 log factor 3.90000000e+00 1.0e-10 1.0e+10 Kp 1.0 0.0 1
KpKp179_VL3 log factor 3.90000000e+00 1.0e-10 1.0e+10 Kp 1.0 0.0 1
KpKp194_VL3 log factor 3.90000000e+00 1.0e-10 1.0e+10 Kp 1.0 0.0 1
KpKp195_VL3 log factor 3.90000000e+00 1.0e-10 1.0e+10 Kp 1.0 0.0 1
KpKp196_Ty3 log factor 7.50000000e+00 1.0e-10 1.0e+10 Kp 1.0 0.0 1
KpKp210_VL3 log factor 3.90000000e+00 1.0e-10 1.0e+10 Kp 1.0 0.0 1
KpKp211_VL3 log factor 3.90000000e+00 1.0e-10 1.0e+10 Kp 1.0 0.0 1
KpKp212_Ty3 log factor 7.50000000e+00 1.0e-10 1.0e+10 Kp 1.0 0.0 1
KpKp226_VL3 log factor 3.90000000e+00 1.0e-10 1.0e+10 Kp 1.0 0.0 1
KpKp227_Ty3 log factor 7.50000000e+00 1.0e-10 1.0e+10 Kp 1.0 0.0 1
KpKp228_Ty3 log factor 7.50000000e+00 1.0e-10 1.0e+10 Kp 1.0 0.0 1
KpKp241_VL3 log factor 3.90000000e+00 1.0e-10 1.0e+10 Kp 1.0 0.0 1
KpKp242_VL3 log factor 3.90000000e+00 1.0e-10 1.0e+10 Kp 1.0 0.0 1
KpKp243_Ty3 log factor 7.50000000e+00 1.0e-10 1.0e+10 Kp 1.0 0.0 1
KpKp180_Ty3 log factor 7.50000000e+00 1.0e-10 1.0e+10 Kp 1.0 0.0 1
KpKp197_Ty3 log factor 7.50000000e+00 1.0e-10 1.0e+10 Kp 1.0 0.0 1
KpKp198_Ar3 log factor 7.50000000e+00 1.0e-10 1.0e+10 Kp 1.0 0.0 1
KpKp213_Ty3 log factor 7.50000000e+00 1.0e-10 1.0e+10 Kp 1.0 0.0 1
KpKp215_Ar3 log factor 7.50000000e+00 1.0e-10 1.0e+10 Kp 1.0 0.0 1
KpKp216_Ar3 log factor 7.50000000e+00 1.0e-10 1.0e+10 Kp 1.0 0.0 1
KpKp229_Ty3 log factor 7.50000000e+00 1.0e-10 1.0e+10 Kp 1.0 0.0 1
KpKp231_Ar3 log factor 7.50000000e+00 1.0e-10 1.0e+10 Kp 1.0 0.0 1
KpKp232_Ar3 log factor 7.50000000e+00 1.0e-10 1.0e+10 Kp 1.0 0.0 1
KpKp233_Ar3 log factor 7.50000000e+00 1.0e-10 1.0e+10 Kp 1.0 0.0 1
KpKp234_Ar3 log factor 7.50000000e+00 1.0e-10 1.0e+10 Kp 1.0 0.0 1
KpKp245_Ty3 log factor 7.50000000e+00 1.0e-10 1.0e+10 Kp 1.0 0.0 1
KpKp247_Ar3 log factor 7.50000000e+00 1.0e-10 1.0e+10 Kp 1.0 0.0 1
KpKp248_Ar3 log factor 7.50000000e+00 1.0e-10 1.0e+10 Kp 1.0 0.0 1
KpKp249_Ar3 log factor 7.50000000e+00 1.0e-10 1.0e+10 Kp 1.0 0.0 1
KpKp250_Ar3 log factor 7.50000000e+00 1.0e-10 1.0e+10 Kp 1.0 0.0 1
KpKp251_Ar3 log factor 7.50000000e+00 1.0e-10 1.0e+10 Kp 1.0 0.0 1
KpKp252_Ar3 log factor 7.50000000e+00 1.0e-10 1.0e+10 Kp 1.0 0.0 1
KpKp254_VL3 log factor 3.90000000e+00 1.0e-10 1.0e+10 Kp 1.0 0.0 1
KpKp257_VL3 log factor 3.90000000e+00 1.0e-10 1.0e+10 Kp 1.0 0.0 1
KpKp258_IW3 log factor 7.50000000e+00 1.0e-10 1.0e+10 Kp 1.0 0.0 1
KpKp260_Ar3 log factor 7.50000000e+00 1.0e-10 1.0e+10 Kp 1.0 0.0 1
KpKp261_Ar3 log factor 7.50000000e+00 1.0e-10 1.0e+10 Kp 1.0 0.0 1
KpKp262_Ar3 log factor 7.50000000e+00 1.0e-10 1.0e+10 Kp 1.0 0.0 1
KpKp263_Ar3 log factor 7.50000000e+00 1.0e-10 1.0e+10 Kp 1.0 0.0 1
KpKp264_Ar3 log factor 7.50000000e+00 1.0e-10 1.0e+10 Kp 1.0 0.0 1
KpKp265_Ar3 log factor 7.50000000e+00 1.0e-10 1.0e+10 Kp 1.0 0.0 1
KpKp266_Ar3 log factor 7.50000000e+00 1.0e-10 1.0e+10 Kp 1.0 0.0 1
KpKp267_Ar3 log factor 7.50000000e+00 1.0e-10 1.0e+10 Kp 1.0 0.0 1
KpKp268_Ar3 log factor 7.50000000e+00 1.0e-10 1.0e+10 Kp 1.0 0.0 1
KpKp269_Ar3 log factor 7.50000000e+00 1.0e-10 1.0e+10 Kp 1.0 0.0 1
KpKp270_Ar3 log factor 7.50000000e+00 1.0e-10 1.0e+10 Kp 1.0 0.0 1
KpKp271_Ar3 log factor 7.50000000e+00 1.0e-10 1.0e+10 Kp 1.0 0.0 1
KpKp272_Ar3 log factor 7.50000000e+00 1.0e-10 1.0e+10 Kp 1.0 0.0 1
KpKp273_Ar3 log factor 7.50000000e+00 1.0e-10 1.0e+10 Kp 1.0 0.0 1
KpKp274_VL3 log factor 3.90000000e+00 1.0e-10 1.0e+10 Kp 1.0 0.0 1
KpKp275_Ar3 log factor 7.50000000e+00 1.0e-10 1.0e+10 Kp 1.0 0.0 1
KpKp276_Ar3 log factor 7.50000000e+00 1.0e-10 1.0e+10 Kp 1.0 0.0 1
KpKp277_Ar3 log factor 7.50000000e+00 1.0e-10 1.0e+10 Kp 1.0 0.0 1
KpKp278_Ar3 log factor 7.50000000e+00 1.0e-10 1.0e+10 Kp 1.0 0.0 1
KpKp279_Ar3 log factor 7.50000000e+00 1.0e-10 1.0e+10 Kp 1.0 0.0 1
KpKp280_Ar3 log factor 7.50000000e+00 1.0e-10 1.0e+10 Kp 1.0 0.0 1
KpKp281_Ar3 log factor 7.50000000e+00 1.0e-10 1.0e+10 Kp 1.0 0.0 1
KpKp282_Ar3 log factor 7.50000000e+00 1.0e-10 1.0e+10 Kp 1.0 0.0 1