pcf
* control data
restart estimation
44 29038 6 0 18
1 1 single point 1 0 0
25 -3 0.3 0.03 -7 999 LAMFORGIVE
5.0 5.0 1.0e-3
0.1 noaui
30 .005 4 4 .005 4
1 1 1  nojcosaveitn noreisaveitn parsaveitn
* singular value decomposition
1
44 5e-7
0
* parameter groups
4_runoff     relative     1.0000E-02   0.000      switch      2.000      parabolic
0_szone      relative     1.0000E-02   0.000      switch      2.000      parabolic
4_szone      relative     1.0000E-02   0.000      switch      2.000      parabolic
4_prms       relative     1.0000E-02   0.000      switch      2.000      parabolic
3_snow       relative     1.0000E-02   0.000      switch      2.000      parabolic
3_precip     relative     1.0000E-02   0.000      switch      2.000      parabolic
* parameter data
smde_s1 log factor   0.8000000      0.2 0.8 4_runoff 1.000 0.000 1
smde_s2 log factor   0.3002545      0.2 0.8 4_runoff 1.000 0.000 1
smde_s3 log factor   0.5713943      0.2 0.8 4_runoff 1.000 0.000 1
smde_s4 log factor   0.2999866      0.2 0.8 4_runoff 1.000 0.000 1
prfl_s1 log factor   0.1000000      0.1 1.1 0_szone 1.000 -.1000 1
prfl_s2 log factor   0.7577385      0.1 1.1 0_szone 1.000 -.1000 1
prfl_s3 log factor   0.3395087      0.1 1.1 0_szone 1.000 -.1000 1
prfl_s4 log factor   0.1000000      0.1 1.1 0_szone 1.000 -.1000 1
sint_s1 log factor   0.5482094      0.1 0.6 4_szone 1.000 -.1000 1
sint_s2 log factor   0.1186035      0.1 0.6 4_szone 1.000 -.1000 1
sint_s3 log factor   0.4890004      0.1 0.6 4_szone 1.000 -.1000 1
sint_s4 log factor   0.1184047      0.1 0.6 4_szone 1.000 -.1000 1
ss2g_s1 log factor   0.7395994      0.1 1.1 4_szone 1.000 -.1000 1
ss2g_s2 log factor    1.100000      0.1 1.1 4_szone 1.000 -.1000 1
ss2g_s3 log factor   0.7656697      0.1 1.1 4_szone 1.000 -.1000 1
ss2g_s4 log factor   0.7817751      0.1 1.1 4_szone 1.000 -.1000 1
srec_s1 log factor   0.7057920      0.1 5.1 4_szone 1.000 -.1000 1
srec_s2 log factor   0.3296491      0.1 5.1 4_szone 1.000 -.1000 1
srec_s3 log factor   0.2120073      0.1 5.1 4_szone 1.000 -.1000 1
srec_s4 log factor    1.661229      0.1 5.1 4_szone 1.000 -.1000 1
smoi_s1 log factor    10.10000      0.1 10.1 4_szone 1.000 -.1000 1
smoi_s2 log factor    3.367964      0.1 10.1 4_szone 1.000 -.1000 1
smoi_s3 log factor    8.187158      0.1 10.1 4_szone 1.000 -.1000 1
smoi_s4 log factor    2.822294      0.1 10.1 4_szone 1.000 -.1000 1
gwf_s1 log factor   0.1000000      0.1 0.6 4_prms 1.000 -.1000 1
gwf_s2 log factor   0.1424463      0.1 0.6 4_prms 1.000 -.1000 1
gwf_s3 log factor   0.1185690      0.1 0.6 4_prms 1.000 -.1000 1
gwf_s4 log factor   0.1184040      0.1 0.6 4_prms 1.000 -.1000 1
smdc_s1 log factor   2.6324368E-02  1.0e-4 0.06 4_runoff 1.000 0.000 1
smdc_s2 log factor   4.9961494E-03  1.0e-4 0.06 4_runoff 1.000 0.000 1
smdc_s3 log factor   1.0785017E-03  1.0e-4 0.06 4_runoff 1.000 0.000 1
smdc_s4 log factor   4.9997769E-03  1.0e-4 0.06 4_runoff 1.000 0.000 1
fint_s1 log factor   0.1599222      0.1 1.1 4_szone 1.000 -.1000 1
fint_s2 log factor    1.099933      0.1 1.1 4_szone 1.000 -.1000 1
fint_s3 log factor   0.9187204      0.1 1.1 4_szone 1.000 -.1000 1
fint_s4 log factor   0.1368239      0.1 1.1 4_szone 1.000 -.1000 1
so2g_s1 log factor   0.1069932      0.1 5.1 4_szone 1.000 -.1000 1
so2g_s2 log factor   0.1000000      0.1 5.1 4_szone 1.000 -.1000 1
so2g_s3 log factor   0.1000000      0.1 5.1 4_szone 1.000 -.1000 1
so2g_s4 log factor   0.1000001      0.1 5.1 4_szone 1.000 -.1000 1
pets_m log factor   0.4999747      0.1 0.75 3_snow 1.000 0.000 1
admx_m log factor    1.099965      0.1 1.1 3_precip 1.000 -.1000 1
free_m log factor   4.9997769E-02  0.01 0.2 3_snow 1.000 0.000 1
emis_m log factor   0.7570000      0.757 1.0 3_snow 1.000 0.000 1
* observation groups
sim3mm
sim3a
sim3
sim3m
sim3b
sim3l
sim2mm
sim2a
sim2
sim2m
sim2b
sim2l
sim1mm
sim1a
sim1
sim1m
sim1b
sim1l
* observation data
sim3mm_1               164.5645         1.00000      sim3mm
sim3mm_2               170.6738         1.00000      sim3mm
sim3mm_3               299.5032         1.00000      sim3mm
sim3mm_4               496.7200         1.00000      sim3mm
sim3mm_5               308.1387         1.00000      sim3mm
sim3mm_6               242.3667         1.00000      sim3mm
sim3mm_7               180.8903         1.00000      sim3mm
sim3mm_8               196.5774         1.00000      sim3mm
sim3mm_9               178.2367         1.00000      sim3mm
sim3mm_10              237.7806         1.00000      sim3mm
sim3mm_11              187.1000         1.00000      sim3mm
sim3mm_12              163.0874         1.00000      sim3mm
sim3a_1                327.9670         1.00000      sim3a
sim3a_2                262.4603         1.00000      sim3a
sim3a_3                245.1393         1.00000      sim3a
sim3a_4                235.7726         1.00000      sim3a
sim3a_5                241.4493         1.00000      sim3a
sim3a_6                191.0658         1.00000      sim3a
sim3a_7                242.3661         1.00000      sim3a
sim3a_8                164.0137         1.00000      sim3a
sim3a_9                230.3726         1.00000      sim3a
sim3a_10               254.2904         1.00000      sim3a
sim3a_11               170.4396         1.00000      sim3a
sim3_1                 176.0000         1.00000      sim3
sim3_2                 176.0000         1.00000      sim3
sim3_3                 179.0000         1.00000      sim3
sim3_4                 194.0000         1.00000      sim3
sim3_5                 202.0000         1.00000      sim3
sim3_6                 195.0000         1.00000      sim3
sim3_7                 193.0000         1.00000      sim3
sim3_8                 166.0000         1.00000      sim3
sim3_9                 189.0000         1.00000      sim3
sim3_10                228.0000         1.00000      sim3
sim3_11                240.0000         1.00000      sim3
sim3_12                217.0000         1.00000      sim3
sim3_13                212.0000         1.00000      sim3
sim3_14                194.0000         1.00000      sim3
sim3_15                194.0000         1.00000      sim3
sim3_16                193.0000         1.00000      sim3
sim3_17                179.0000         1.00000      sim3
sim3_18                142.0000         1.00000      sim3
sim3_19                130.0000         1.00000      sim3
sim3_20                164.0000         1.00000      sim3
sim3_21                213.0000         1.00000      sim3
sim3_22                187.0000         1.00000      sim3
sim3_23                192.0000         1.00000      sim3
sim3_24                181.0000         1.00000      sim3
sim3_25                187.0000         1.00000      sim3
sim3_26                186.0000         1.00000      sim3
sim3_27                187.0000         1.00000      sim3
sim3_28                188.0000         1.00000      sim3
sim3_29                183.0000         1.00000      sim3
sim3_30                162.0000         1.00000      sim3
sim3_31                173.0000         1.00000      sim3
sim3_32                173.0000         1.00000      sim3
sim3_33                174.0000         1.00000      sim3
sim3_34                165.0000         1.00000      sim3
sim3_35                175.0000         1.00000      sim3
sim3_36                166.0000         1.00000      sim3
sim3_37                192.0000         1.00000      sim3
sim3_38                192.0000         1.00000      sim3
sim3_39                191.0000         1.00000      sim3
sim3_40                188.0000         1.00000      sim3
sim3_41                173.0000         1.00000      sim3
sim3_42                189.0000         1.00000      sim3
sim3_43                173.0000         1.00000      sim3
sim3_44                161.0000         1.00000      sim3
sim3_45                190.0000         1.00000      sim3
sim3_46                191.0000         1.00000      sim3
sim3_47                180.0000         1.00000      sim3
sim3_48                184.0000         1.00000      sim3
sim3_49                174.0000         1.00000      sim3
sim3_50                221.0000         1.00000      sim3
sim3_51                219.0000         1.00000      sim3
sim3_52                197.0000         1.00000      sim3
sim3_53                194.0000         1.00000      sim3
sim3_54                221.0000         1.00000      sim3
sim3_55                210.0000         1.00000      sim3
sim3_56                203.0000         1.00000      sim3
sim3_57                216.0000         1.00000      sim3
sim3_58                161.0000         1.00000      sim3
sim3_59                185.0000         1.00000      sim3
sim3_60                183.0000         1.00000      sim3
sim3_61                176.0000         1.00000      sim3
sim3_62                193.0000         1.00000      sim3
sim3_63                177.0000         1.00000      sim3
sim3_64                180.0000         1.00000      sim3
sim3_65                225.0000         1.00000      sim3
sim3_66                188.0000         1.00000      sim3
sim3_67                177.0000         1.00000      sim3
sim3_68                181.0000         1.00000      sim3
sim3_69                186.0000         1.00000      sim3
sim3_70                203.0000         1.00000      sim3
sim3_71                228.0000         1.00000      sim3
sim3_72                218.0000         1.00000      sim3
sim3_73                242.0000         1.00000      sim3
sim3_74                204.0000         1.00000      sim3
sim3_75                202.0000         1.00000      sim3
sim3_76                236.0000         1.00000      sim3
sim3_77                214.0000         1.00000      sim3
sim3_78                243.0000         1.00000      sim3
sim3_79                241.0000         1.00000      sim3
sim3_80                228.0000         1.00000      sim3
sim3_81                199.0000         1.00000      sim3
sim3_82                216.0000         1.00000      sim3
sim3_83                233.0000         1.00000      sim3
sim3_84                208.0000         1.00000      sim3
sim3_85                208.0000         1.00000      sim3
sim3_86                191.0000         1.00000      sim3
sim3_87                240.0000         1.00000      sim3
sim3_88                272.0000         1.00000      sim3
sim3_89                348.0000         1.00000      sim3
sim3_90                333.0000         1.00000      sim3
sim3_91                315.0000         1.00000      sim3
sim3_92                292.0000         1.00000      sim3
sim3_93                280.0000         1.00000      sim3
sim3_94                266.0000         1.00000      sim3
sim3_95                245.0000         1.00000      sim3
sim3_96                243.0000         1.00000      sim3
sim3_97                271.0000         1.00000      sim3
sim3_98                500.0000         1.00000      sim3
sim3_99                609.0000         1.00000      sim3
sim3_100               1460.000         1.00000      sim3
sim3_101               2900.000         1.00000      sim3
sim3_102               2820.000         1.00000      sim3
sim3_103               3010.000         1.00000      sim3
sim3_104               3050.000         1.00000      sim3
sim3_105               2690.000         1.00000      sim3
sim3_106               2480.000         1.00000      sim3
sim3_107               2250.000         1.00000      sim3
sim3_108               2130.000         1.00000      sim3
sim3_109               1690.000         1.00000      sim3
sim3_110               1310.000         1.00000      sim3
sim3_111               942.0000         1.00000      sim3
sim3_112               625.0000         1.00000      sim3
sim3_113               542.0000         1.00000      sim3
sim3_114               482.0000         1.00000      sim3
sim3_115               471.0000         1.00000      sim3
sim3_116               408.0000         1.00000      sim3
sim3_117               384.0000         1.00000      sim3
sim3_118               339.0000         1.00000      sim3
sim3_119               387.0000         1.00000      sim3
sim3_120               412.0000         1.00000      sim3
sim3_121               374.0000         1.00000      sim3
sim3_122               332.0000         1.00000      sim3
sim3_123               293.0000         1.00000      sim3
sim3_124               281.0000         1.00000      sim3
sim3_125               260.0000         1.00000      sim3
sim3_126               260.0000         1.00000      sim3
sim3_127               251.0000         1.00000      sim3
sim3_128               1180.000         1.00000      sim3
sim3_129               1310.000         1.00000      sim3
sim3_130               1090.000         1.00000      sim3
sim3_131               1110.000         1.00000      sim3
sim3_132               1070.000         1.00000      sim3
sim3_133               703.0000         1.00000      sim3
sim3_134               581.0000         1.00000      sim3
sim3_135               505.0000         1.00000      sim3
sim3_136               376.0000         1.00000      sim3
sim3_137               330.0000         1.00000      sim3
sim3_138               288.0000         1.00000      sim3
sim3_139               269.0000         1.00000      sim3
sim3_140               240.0000         1.00000      sim3
sim3_141               221.0000         1.00000      sim3
sim3_142               220.0000         1.00000      sim3
sim3_143               216.0000         1.00000      sim3
sim3_144               187.0000         1.00000      sim3
sim3_145               209.0000         1.00000      sim3
sim3_146               177.0000         1.00000      sim3
sim3_147               200.0000         1.00000      sim3
sim3_148               179.0000         1.00000      sim3
sim3_149               177.0000         1.00000      sim3
sim3_150               190.0000         1.00000      sim3
sim3_151               179.0000         1.00000      sim3
sim3_152               176.0000         1.00000      sim3
sim3_153               166.0000         1.00000      sim3
sim3_154               174.0000         1.00000      sim3
sim3_155               178.0000         1.00000      sim3
sim3_156               183.0000         1.00000      sim3
sim3_157               189.0000         1.00000      sim3
sim3_158               192.0000         1.00000      sim3
sim3_159               198.0000         1.00000      sim3
sim3_160               224.0000         1.00000      sim3
sim3_161               219.0000         1.00000      sim3
sim3_162               213.0000         1.00000      sim3
sim3_163               217.0000         1.00000      sim3
sim3_164               220.0000         1.00000      sim3
sim3_165               258.0000         1.00000      sim3
sim3_166               256.0000         1.00000      sim3
sim3_167               236.0000         1.00000      sim3
sim3_168               196.0000         1.00000      sim3
sim3_169               179.0000         1.00000      sim3
sim3_170               180.0000         1.00000      sim3
sim3_171               178.0000         1.00000      sim3
sim3_172               175.0000         1.00000      sim3
sim3_173               164.0000         1.00000      sim3
sim3_174               184.0000         1.00000      sim3
sim3_175               189.0000         1.00000      sim3
sim3_176               180.0000         1.00000      sim3
sim3_177               212.0000         1.00000      sim3
sim3_178               173.0000         1.00000      sim3
sim3_179               169.0000         1.00000      sim3
sim3_180               165.0000         1.00000      sim3
sim3_181               158.0000         1.00000      sim3
sim3_182               155.0000         1.00000      sim3
sim3_183               128.0000         1.00000      sim3
sim3_184               143.0000         1.00000      sim3
sim3_185               147.0000         1.00000      sim3
sim3_186               173.0000         1.00000      sim3
sim3_187               151.0000         1.00000      sim3
sim3_188               154.0000         1.00000      sim3
sim3_189               173.0000         1.00000      sim3
sim3_190               184.0000         1.00000      sim3
sim3_191               210.0000         1.00000      sim3
sim3_192               183.0000         1.00000      sim3
sim3_193               176.0000         1.00000      sim3
sim3_194               158.0000         1.00000      sim3
sim3_195               178.0000         1.00000      sim3
sim3_196               160.0000         1.00000      sim3
sim3_197               162.0000         1.00000      sim3
sim3_198               180.0000         1.00000      sim3
sim3_199               204.0000         1.00000      sim3
sim3_200               185.0000         1.00000      sim3
sim3_201               177.0000         1.00000      sim3
sim3_202               245.0000         1.00000      sim3
sim3_203               263.0000         1.00000      sim3
sim3_204               236.0000         1.00000      sim3
sim3_205               232.0000         1.00000      sim3
sim3_206               191.0000         1.00000      sim3
sim3_207               183.0000         1.00000      sim3
sim3_208               209.0000         1.00000      sim3
sim3_209               192.0000         1.00000      sim3
sim3_210               192.0000         1.00000      sim3
sim3_211               177.0000         1.00000      sim3
sim3_212               215.0000         1.00000      sim3
sim3_213               242.0000         1.00000      sim3
sim3_214               212.0000         1.00000      sim3
sim3_215               230.0000         1.00000      sim3
sim3_216               206.0000         1.00000      sim3
sim3_217               214.0000         1.00000      sim3
sim3_218               203.0000         1.00000      sim3
sim3_219               188.0000         1.00000      sim3
sim3_220               203.0000         1.00000      sim3
sim3_221               184.0000         1.00000      sim3
sim3_222               186.0000         1.00000      sim3
sim3_223               205.0000         1.00000      sim3
sim3_224               187.0000         1.00000      sim3
sim3_225               188.0000         1.00000      sim3
sim3_226               189.0000         1.00000      sim3
sim3_227               207.0000         1.00000      sim3
sim3_228               189.0000         1.00000      sim3
sim3_229               223.0000         1.00000      sim3
sim3_230               264.0000         1.00000      sim3
sim3_231               266.0000         1.00000      sim3
sim3_232               235.0000         1.00000      sim3
sim3_233               242.0000         1.00000      sim3
sim3_234               260.0000         1.00000      sim3
sim3_235               246.0000         1.00000      sim3
sim3_236               248.0000         1.00000      sim3
sim3_237               254.0000         1.00000      sim3
sim3_238               214.0000         1.00000      sim3
sim3_239               205.0000         1.00000      sim3
sim3_240               205.0000         1.00000      sim3
sim3_241               184.0000         1.00000      sim3
sim3_242               204.0000         1.00000      sim3
sim3_243               204.0000         1.00000      sim3
sim3_244               188.0000         1.00000      sim3
sim3_245               202.0000         1.00000      sim3
sim3_246               238.0000         1.00000      sim3
sim3_247               233.0000         1.00000      sim3
sim3_248               191.0000         1.00000      sim3
sim3_249               243.0000         1.00000      sim3
sim3_250               208.0000         1.00000      sim3
sim3_251               206.0000         1.00000      sim3
sim3_252               204.0000         1.00000      sim3
sim3_253               213.0000         1.00000      sim3
sim3_254               233.0000         1.00000      sim3
sim3_255               221.0000         1.00000      sim3
sim3_256               206.0000         1.00000      sim3
sim3_257               202.0000         1.00000      sim3
sim3_258               196.0000         1.00000      sim3
sim3_259               184.0000         1.00000      sim3
sim3_260               191.0000         1.00000      sim3
sim3_261               188.0000         1.00000      sim3
sim3_262               179.0000         1.00000      sim3
sim3_263               208.0000         1.00000      sim3
sim3_264               179.0000         1.00000      sim3
sim3_265               195.0000         1.00000      sim3
sim3_266               197.0000         1.00000      sim3
sim3_267               243.0000         1.00000      sim3
sim3_268               243.0000         1.00000      sim3
sim3_269               260.0000         1.00000      sim3
sim3_270               279.0000         1.00000      sim3
sim3_271               257.0000         1.00000      sim3
sim3_272               225.0000         1.00000      sim3
sim3_273               225.0000         1.00000      sim3
sim3_274               236.0000         1.00000      sim3
sim3_275               222.0000         1.00000      sim3
sim3_276               241.0000         1.00000      sim3
sim3_277               1080.000         1.00000      sim3
sim3_278               742.0000         1.00000      sim3
sim3_279               829.0000         1.00000      sim3
sim3_280               906.0000         1.00000      sim3
sim3_281               798.0000         1.00000      sim3
sim3_282               682.0000         1.00000      sim3
sim3_283               535.0000         1.00000      sim3
sim3_284               401.0000         1.00000      sim3
sim3_285               355.0000         1.00000      sim3
sim3_286               315.0000         1.00000      sim3
sim3_287               292.0000         1.00000      sim3
sim3_288               236.0000         1.00000      sim3
sim3_289               224.0000         1.00000      sim3
sim3_290               221.0000         1.00000      sim3
sim3_291               213.0000         1.00000      sim3
sim3_292               213.0000         1.00000      sim3
sim3_293               219.0000         1.00000      sim3
sim3_294               225.0000         1.00000      sim3
sim3_295               223.0000         1.00000      sim3
sim3_296               228.0000         1.00000      sim3
sim3_297               226.0000         1.00000      sim3
sim3_298               227.0000         1.00000      sim3
sim3_299               250.0000         1.00000      sim3
sim3_300               256.0000         1.00000      sim3
sim3_301               262.0000         1.00000      sim3
sim3_302               248.0000         1.00000      sim3
sim3_303               221.0000         1.00000      sim3
sim3_304               218.0000         1.00000      sim3
sim3_305               217.0000         1.00000      sim3
sim3_306               213.0000         1.00000      sim3
sim3_307               204.0000         1.00000      sim3
sim3_308               196.0000         1.00000      sim3
sim3_309               194.0000         1.00000      sim3
sim3_310               193.0000         1.00000      sim3
sim3_311               202.0000         1.00000      sim3
sim3_312               200.0000         1.00000      sim3
sim3_313               202.0000         1.00000      sim3
sim3_314               194.0000         1.00000      sim3
sim3_315               199.0000         1.00000      sim3
sim3_316               143.0000         1.00000      sim3
sim3_317               174.0000         1.00000      sim3
sim3_318               152.0000         1.00000      sim3
sim3_319               132.0000         1.00000      sim3
sim3_320               139.0000         1.00000      sim3
sim3_321               140.0000         1.00000      sim3
sim3_322               140.0000         1.00000      sim3
sim3_323               149.0000         1.00000      sim3
sim3_324               146.0000         1.00000      sim3
sim3_325               183.0000         1.00000      sim3
sim3_326               172.0000         1.00000      sim3
sim3_327               194.0000         1.00000      sim3
sim3_328               191.0000         1.00000      sim3
sim3_329               177.0000         1.00000      sim3
sim3_330               135.0000         1.00000      sim3
sim3_331               125.0000         1.00000      sim3
sim3_332               155.0000         1.00000      sim3
sim3_333               208.0000         1.00000      sim3
sim3_334               184.0000         1.00000      sim3
sim3_335               151.0000         1.00000      sim3
sim3_336               126.0000         1.00000      sim3
sim3_337               99.00000         1.00000      sim3
sim3_338               128.0000         1.00000      sim3
sim3_339               142.0000         1.00000      sim3
sim3_340               188.0000         1.00000      sim3
sim3_341               214.0000         1.00000      sim3
sim3_342               171.0000         1.00000      sim3
sim3_343               172.0000         1.00000      sim3
sim3_344               152.0000         1.00000      sim3
sim3_345               189.0000         1.00000      sim3
sim3_346               202.0000         1.00000      sim3
sim3_347               209.0000         1.00000      sim3
sim3_348               206.0000         1.00000      sim3
sim3_349               193.0000         1.00000      sim3
sim3_350               189.0000         1.00000      sim3
sim3_351               187.0000         1.00000      sim3
sim3_352               189.0000         1.00000      sim3
sim3_353               226.0000         1.00000      sim3
sim3_354               209.0000         1.00000      sim3
sim3_355               217.0000         1.00000      sim3
sim3_356               188.0000         1.00000      sim3
sim3_357               169.0000         1.00000      sim3
sim3_358               146.0000         1.00000      sim3
sim3_359               161.0000         1.00000      sim3
sim3_360               172.0000         1.00000      sim3
sim3_361               174.0000         1.00000      sim3
sim3_362               194.0000         1.00000      sim3
sim3_363               201.0000         1.00000      sim3
sim3_364               201.0000         1.00000      sim3
sim3_365               174.0000         1.00000      sim3
sim3_366               119.0000         1.00000      sim3
sim3_367               132.0000         1.00000      sim3
sim3_368               162.0000         1.00000      sim3
sim3_369               175.0000         1.00000      sim3
sim3_370               193.0000         1.00000      sim3
sim3_371               193.0000         1.00000      sim3
sim3_372               192.0000         1.00000      sim3
sim3_373               191.0000         1.00000      sim3
sim3_374               192.0000         1.00000      sim3
sim3_375               175.0000         1.00000      sim3
sim3_376               106.0000         1.00000      sim3
sim3_377               95.00000         1.00000      sim3
sim3_378               160.0000         1.00000      sim3
sim3_379               160.0000         1.00000      sim3
sim3_380               170.0000         1.00000      sim3
sim3_381               170.0000         1.00000      sim3
sim3_382               170.0000         1.00000      sim3
sim3_383               170.0000         1.00000      sim3
sim3_384               170.0000         1.00000      sim3
sim3_385               170.0000         1.00000      sim3
sim3_386               160.0000         1.00000      sim3
sim3_387               160.0000         1.00000      sim3
sim3_388               150.0000         1.00000      sim3
sim3_389               160.0000         1.00000      sim3
sim3_390               160.0000         1.00000      sim3
sim3_391               170.0000         1.00000      sim3
sim3_392               160.0000         1.00000      sim3
sim3_393               160.0000         1.00000      sim3
sim3_394               170.0000         1.00000      sim3
sim3_395               170.0000         1.00000      sim3
sim3_396               170.0000         1.00000      sim3
sim3_397               180.0000         1.00000      sim3
sim3_398               180.0000         1.00000      sim3
sim3_399               180.0000         1.00000      sim3
sim3_400               180.0000         1.00000      sim3
sim3_401               170.0000         1.00000      sim3
sim3_402               130.0000         1.00000      sim3
sim3_403               140.0000         1.00000      sim3
sim3_404               160.0000         1.00000      sim3
sim3_405               170.0000         1.00000      sim3
sim3_406               180.0000         1.00000      sim3
sim3_407               180.0000         1.00000      sim3
sim3_408               180.0000         1.00000      sim3
sim3_409               170.0000         1.00000      sim3
sim3_410               170.0000         1.00000      sim3
sim3_411               180.0000         1.00000      sim3
sim3_412               170.0000         1.00000      sim3
sim3_413               160.0000         1.00000      sim3
sim3_414               170.0000         1.00000      sim3
sim3_415               180.0000         1.00000      sim3
sim3_416               180.0000         1.00000      sim3
sim3_417               180.0000         1.00000      sim3