pcf
* control data
restart regularization
    2960   10859      13    3668     102
     19     8   single   point   1   0   0
25.0   -3.0    0.3    0.03    10  999   LAMFORGIVE
5.0   5.0   1.0e-3
0.1  noaui
-1   .005  4   4  .005   4
1    1    1  1
* parameter groups
Kx             relative   1.000000e-002  0.000000e+000   switch    2.000000e+000  parabolic
Kz             relative   1.000000e-002  0.000000e+000   switch    2.000000e+000  parabolic
StreamCond     relative   1.000000e-002  0.000000e+000   switch    2.000000e+000  parabolic
LakeCond       relative   1.000000e-002  0.000000e+000   switch    2.000000e+000  parabolic
UnsatZone      relative   1.000000e-002  0.000000e+000   switch    2.000000e+000  parabolic
runoff       relative     1.0000E-02   0.000      switch      2.000      parabolic
precip       relative     1.0000E-02   0.000      switch      2.000      parabolic
solrad       relative     1.0000E-02   0.000      switch      2.000      parabolic
snow         relative     1.0000E-02   0.000      switch      2.000      parabolic
prms         relative     1.0000E-02   0.000      switch      2.000      parabolic
evap         relative     1.0000E-02   0.000      switch      2.000      parabolic
szone        relative     1.0000E-02   0.000      switch      2.000      parabolic
sfres        relative     1.0000E-02   0.000      switch      2.000      parabolic
* parameter data
surfdep      log        factor    1.088060      0.01000          3.0000      unsatzone      1.0e-1       0.000        1
alleqoutmult log    factor    16.74940      0.10000        100.00      sfres         0.1000       0.000        1
troutoutmult log    factor    7.082980      0.10000        100.00      sfres         0.1000       0.000        1
ljohnoutmult log    factor    27.89800      0.10000        100.00      sfres         0.1000       0.000        1
mannoutmult  log    factor    11.64500      0.10000        100.00      sfres         0.1000       0.000        1
alleqlowflw  log    factor    50558.30      42000.       1.68000e+05  sfres         0.1000       0.000        1
troutlowflw  log    factor    17855.60      5000.0        80000.      sfres         0.1000       0.000        1
sandy_strkv  log        factor   0.9769104      0.10000          20.000      streamcond     1.000       0.000        1
alwetstrmkv  log        factor   1.0008597E-02  0.00001          10.000      streamcond     1.000 	 0.000        1
stwetstrmkv1 log        factor   1.0914943E-02  0.00001          10.000      streamcond     1.000  	 0.000        1
stwetstrmkv2 log        factor   1.0695144E-02  0.00001          10.000      streamcond     1.000  	 0.000        1
norwetstrmkv log        factor   1.0977108E-02  0.00001          10.000      streamcond     1.000  	 0.000        1
manwetstrmkv log        factor   1.0032921E-02  0.00001          10.000      streamcond     1.000       0.000        1
lake01lay1    log       factor   1.0969308E-02  1.000000e-005     5.000000e-001    lakecond      1.0e+000        0.0     1
lake02lay1    log       factor   1.0548581E-02  1.000000e-005     5.000000e-001    lakecond      1.0e+000        0.0     1
lake03lay1    log       factor   1.0866788E-02  1.000000e-005     5.000000e-001    lakecond      1.0e+000        0.0     1
lake04lay1    log       factor   7.9495686E-03  1.000000e-005     5.000000e-001    lakecond      1.0e+000        0.0     1
lake05lay1    log       factor   1.1285894E-02  1.000000e-005     5.000000e-001    lakecond      1.0e+000        0.0     1
lake06lay1    log       factor   3.2432595E-03  1.000000e-005     5.000000e-001    lakecond      1.0e+000        0.0     1
lake07lay1    log       factor   1.0529688E-02  1.000000e-005     5.000000e-001    lakecond      1.0e+000        0.0     1
lake08lay1    log       factor   1.0273865E-02  1.000000e-005     5.000000e-001    lakecond      1.0e+000        0.0     1
lake09lay1    log       factor   1.1212181E-02  1.000000e-005     5.000000e-001    lakecond      1.0e+000        0.0     1
lake10lay1    log       factor   1.0194233E-02  1.000000e-005     5.000000e-001    lakecond      1.0e+000        0.0     1
lake11lay1    log       factor   9.8125518E-03  1.000000e-005     5.000000e-001    lakecond      1.0e+000        0.0     1
lake12lay1    log       factor   1.0525910E-02  1.000000e-005     5.000000e-001    lakecond      1.0e+000        0.0     1
lake13lay1    log       factor   1.0346819E-02  1.000000e-005     5.000000e-001    lakecond      1.0e+000        0.0     1
lake14lay1    log       factor   5.9537302E-03  1.000000e-005     5.000000e-001    lakecond      1.0e+000        0.0     1
lake15lay1    log       factor   4.3210923E-03  1.000000e-005     5.000000e-001    lakecond      1.0e+000        0.0     1
lake16lay1    log       factor   9.8516126E-03  1.000000e-005     5.000000e-001    lakecond      1.0e+000        0.0     1
lake17lay1    log       factor   1.0260511E-02  1.000000e-005     5.000000e-001    lakecond      1.0e+000        0.0     1
lake18lay1    log       factor   8.7672636E-03  1.000000e-005     5.000000e-001    lakecond      1.0e+000        0.0     1
lake19lay1    log       factor   1.0195874E-02  1.000000e-005     5.000000e-001    lakecond      1.0e+000        0.0     1
lake20lay1    log       factor   1.0038127E-02  1.000000e-005     5.000000e-001    lakecond      1.0e+000        0.0     1
lake21lay1    log       factor   9.6429321E-03  1.000000e-005     5.000000e-001    lakecond      1.0e+000        0.0     1
lake22lay1    log       factor   1.4757312E-02  1.000000e-005     5.000000e-001    lakecond      1.0e+000        0.0     1
lake23lay1    log       factor   9.7708294E-03  1.000000e-005     5.000000e-001    lakecond      1.0e+000        0.0     1
lake24lay1    log       factor   9.1489571E-03  1.000000e-005     5.000000e-001    lakecond      1.0e+000        0.0     1
lake25lay1    log       factor   1.0405571E-02  1.000000e-005     5.000000e-001    lakecond      1.0e+000        0.0     1
lake26lay1    log       factor   9.7806424E-03  1.000000e-005     5.000000e-001    lakecond      1.0e+000        0.0     1
lake27lay1    log       factor   1.0867984E-02  1.000000e-005     5.000000e-001    lakecond      1.0e+000        0.0     1
lake28lay1    log       factor   9.8013267E-03  1.000000e-005     5.000000e-001    lakecond      1.0e+000        0.0     1
lake29lay1    log       factor   4.0972687E-03  1.000000e-005     5.000000e-001    lakecond      1.0e+000        0.0     1
lake30lay1    log       factor   1.0714880E-02  1.000000e-005     5.000000e-001    lakecond      1.0e+000        0.0     1
lake07lay2    tied      factor   1.0529688E-02  1.000000e-005     5.000000e-001    lakecond      1.0e+000        0.0     1
lake08lay2    tied      factor   1.0273865E-02  1.000000e-005     5.000000e-001    lakecond      1.0e+000        0.0     1
lake12lay2    tied      factor   1.0525910E-02  1.000000e-005     5.000000e-001    lakecond      1.0e+000        0.0     1
lake15lay2    tied      factor   4.3210923E-03  1.000000e-005     5.000000e-001    lakecond      1.0e+000        0.0     1
lake18lay2    tied      factor   8.7672636E-03  1.000000e-005     5.000000e-001    lakecond      1.0e+000        0.0     1
lake19lay2    tied      factor   1.0195874E-02  1.000000e-005     5.000000e-001    lakecond      1.0e+000        0.0     1
lake22lay2    tied      factor   1.4757312E-02  1.000000e-005     5.000000e-001    lakecond      1.0e+000        0.0     1
lake23lay2    tied      factor   9.7708294E-03  1.000000e-005     5.000000e-001    lakecond      1.0e+000        0.0     1
lake24lay2    tied      factor   9.1489571E-03  1.000000e-005     5.000000e-001    lakecond      1.0e+000        0.0     1
lake28lay2    tied      factor   9.8013267E-03  1.000000e-005     5.000000e-001    lakecond      1.0e+000        0.0     1
lake29lay2    tied      factor   4.0972687E-03  1.000000e-005     5.000000e-001    lakecond      1.0e+000        0.0     1
lake30lay2    tied      factor   1.0714880E-02  1.000000e-005     5.000000e-001    lakecond      1.0e+000        0.0     1
lake12lay3    tied      factor   1.0525910E-03  1.000000e-005     5.000000e-001    lakecond      1.0e+000        0.0     1
lake18lay3    tied      factor   8.7672636E-04  1.000000e-005     5.000000e-001    lakecond      1.0e+000        0.0     1
lake22lay3    tied      factor   1.4757312E-03  1.000000e-005     5.000000e-001    lakecond      1.0e+000        0.0     1
lake24lay3    tied      factor   9.1489571E-04  1.000000e-005     5.000000e-001    lakecond      1.0e+000        0.0     1
lake30lay3    tied      factor   1.0714880E-03  1.000000e-005     5.000000e-001    lakecond      1.0e+000        0.0     1
profund       log       factor   9.8136221E-05  1.000000e-005     5.000000e-001    lakecond      1.0e+000        0.0     1
carea_max0   log    factor   0.1000000      0.10000        1.1000      runoff         1.000      -.1000        1
carea_max1   log    factor   0.2027980      0.10000        1.1000      runoff         1.000      -.1000        1
carea_max2   log    factor   0.5172670      0.10000        1.1000      runoff         1.000      -.1000        1
carea_max3   log    factor   0.1022570      0.10000        1.1000      runoff         1.000      -.1000        1
carea_max4   log    factor   0.2394290      0.10000        1.1000      runoff         1.000      -.1000        1
carea_max5   log    factor   0.2168750      0.10000        1.1000      runoff         1.000      -.1000        1
carea_max6   log    factor   0.3189270      0.10000        1.1000      runoff         1.000      -.1000        1
carea_max7   log    factor   0.2348700      0.10000        1.1000      runoff         1.000      -.1000        1
carea_max8   log    factor   0.1842350      0.10000        1.1000      runoff         1.000      -.1000        1
adjmix_rain  log    factor    1.100000      0.10000        3.1000      precip         1.000      -.1000        1
radj_wppt    fixed  factor   0.1112100      0.10000        1.1000      solrad         1.000      -.1000        1
rain_adj     log    factor    1.096300      0.80000        5.0000      precip         1.000       0.000        1
snow_adj     log    factor    1.157910      0.80000        5.0000      precip         1.000       0.000        1
smidx_exp    log    factor   0.2000000      0.20000       0.80000      runoff         1.000       0.000        1
snowinfil_ma fixed  factor    1.100000      0.10000        20.100      runoff         1.000      -.1000        1
gwflow_coef0 fixed  factor   0.1018310      0.10000        1.1000      prms           1.000      -.1000        1
gwflow_coef1 fixed  factor   0.1023690      0.10000        1.1000      prms           1.000      -.1000        1
gwflow_coef2 fixed  factor    1.100000      0.10000        1.1000      prms           1.000      -.1000        1
gwflow_coef3 fixed  factor   0.1000000      0.10000        1.1000      prms           1.000      -.1000        1
gwflow_coef4 fixed  factor   0.4546340      0.10000        1.1000      prms           1.000      -.1000        1
gwflow_coef5 fixed  factor   0.1189600      0.10000        1.1000      prms           1.000      -.1000        1
gwflow_coef6 fixed  factor   0.3251760      0.10000        1.1000      prms           1.000      -.1000        1
gwflow_coef7 fixed  factor   0.1141610      0.10000        1.1000      prms           1.000      -.1000        1
gwflow_coef8 fixed  factor   0.1026000      0.10000        1.1000      prms           1.000      -.1000        1
den_max      fixed  factor   0.5444300      0.10000       0.80000      snow           1.000       0.000        1
jh_coef_hru  fixed  factor    5.000000      5.0000        20.000      evap           1.000       0.000        1
jh_coef01    fixed  factor   6.7962300E-03  5.00000e-03   0.60000      evap           1.000       0.000        1
jh_coef02    fixed  factor   1.4682100E-02  5.00000e-03   0.60000      evap           1.000       0.000        1
jh_coef03    fixed  factor   1.4918700E-02  5.00000e-03   0.60000      evap           1.000       0.000        1
jh_coef04    fixed  factor   1.1249800E-02  5.00000e-03   0.60000      evap           1.000       0.000        1
jh_coef05    fixed  factor   9.3103500E-03  5.00000e-03   0.60000      evap           1.000       0.000        1
jh_coef06    fixed  factor   9.1528800E-03  5.00000e-03   0.60000      evap           1.000       0.000        1
jh_coef07    fixed  factor   9.4200300E-03  5.00000e-03   0.60000      evap           1.000       0.000        1
jh_coef08    fixed  factor   9.8050300E-03  5.00000e-03   0.60000      evap           1.000       0.000        1
jh_coef09    fixed  factor   1.0609500E-02  5.00000e-03   0.60000      evap           1.000       0.000        1
jh_coef10    fixed  factor   1.1844800E-02  5.00000e-03   0.60000      evap           1.000       0.000        1
jh_coef11    fixed  factor   1.6430000E-02  5.00000e-03   0.60000      evap           1.000       0.000        1
jh_coef12    fixed  factor   6.7314300E-03  5.00000e-03   0.60000      evap           1.000       0.000        1
lk_evap_ad01 fixed  factor    1.225900      0.50000        2.0000      evap           1.000       0.000        1
lk_evap_ad02 fixed  factor   0.8854900      0.50000        2.0000      evap           1.000       0.000        1
lk_evap_ad03 fixed  factor   0.5000000      0.50000        2.0000      evap           1.000       0.000        1
lk_evap_ad04 fixed  factor   0.5000000      0.50000        2.0000      evap           1.000       0.000        1
lk_evap_ad05 fixed  factor   0.5000000      0.50000        2.0000      evap           1.000       0.000        1
lk_evap_ad06 fixed  factor   0.5000000      0.50000        2.0000      evap           1.000       0.000        1
lk_evap_ad07 fixed  factor   0.5000000      0.50000        2.0000      evap           1.000       0.000        1
lk_evap_ad08 fixed  factor   0.7606300      0.50000        2.0000      evap           1.000       0.000        1
lk_evap_ad09 fixed  factor    1.018900      0.50000        2.0000      evap           1.000       0.000        1
lk_evap_ad10 fixed  factor    1.403000      0.50000        2.0000      evap           1.000       0.000        1
lk_evap_ad11 fixed  factor    1.168800      0.50000        2.0000      evap           1.000       0.000        1
lk_evap_ad12 fixed  factor   0.8610900      0.50000        2.0000      evap           1.000       0.000        1
al_evap_ad01 log    factor    1.135460      0.70000        1.5000      evap           1.000       0.000        1
al_evap_ad02 log    factor   0.9838300      0.70000        1.5000      evap           1.000       0.000        1
al_evap_ad03 log    factor   0.7000000      0.70000        1.5000      evap           1.000       0.000        1
al_evap_ad04 log    factor   0.7000000      0.70000        1.5000      evap           1.000       0.000        1
al_evap_ad05 log    factor   0.7000000      0.70000        1.5000      evap           1.000       0.000        1
al_evap_ad06 log    factor   0.7388150      0.70000        1.5000      evap           1.000       0.000        1
al_evap_ad07 log    factor   0.7091520      0.70000        1.5000      evap           1.000       0.000        1
al_evap_ad08 log    factor   0.8278890      0.70000        1.5000      evap           1.000       0.000        1
al_evap_ad09 log    factor    1.136290      0.70000        1.5000      evap           1.000       0.000        1
al_evap_ad10 log    factor    1.500000      0.70000        1.5000      evap           1.000       0.000        1
al_evap_ad11 log    factor    1.112220      0.70000        1.5000      evap           1.000       0.000        1
al_evap_ad12 log    factor   0.8381410      0.70000        1.5000      evap           1.000       0.000        1
bm_evap_ad01 log    factor    1.225900      0.70000        1.5000      evap           1.000       0.000        1
bm_evap_ad02 log    factor   0.8854900      0.70000        1.5000      evap           1.000       0.000        1
bm_evap_ad03 log    factor   0.7000000      0.70000        1.5000      evap           1.000       0.000        1
bm_evap_ad04 log    factor   0.7000000      0.70000        1.5000      evap           1.000       0.000        1
bm_evap_ad05 log    factor   0.7000000      0.70000        1.5000      evap           1.000       0.000        1
bm_evap_ad06 log    factor   0.7000000      0.70000        1.5000      evap           1.000       0.000        1
bm_evap_ad07 log    factor   0.7000000      0.70000        1.5000      evap           1.000       0.000        1
bm_evap_ad08 log    factor   0.7606300      0.70000        1.5000      evap           1.000       0.000        1
bm_evap_ad09 log    factor    1.018900      0.70000        1.5000      evap           1.000       0.000        1
bm_evap_ad10 log    factor    1.403000      0.70000        1.5000      evap           1.000       0.000        1
bm_evap_ad11 log    factor    1.168800      0.70000        1.5000      evap           1.000       0.000        1
bm_evap_ad12 log    factor   0.8610900      0.70000        1.5000      evap           1.000       0.000        1
cr_evap_ad01 log    factor    1.225900      0.70000        1.5000      evap           1.000       0.000        1
cr_evap_ad02 log    factor   0.8854900      0.70000        1.5000      evap           1.000       0.000        1
cr_evap_ad03 log    factor   0.7000000      0.70000        1.5000      evap           1.000       0.000        1
cr_evap_ad04 log    factor   0.7000000      0.70000        1.5000      evap           1.000       0.000        1
cr_evap_ad05 log    factor   0.7000000      0.70000        1.5000      evap           1.000       0.000        1
cr_evap_ad06 log    factor   0.7000000      0.70000        1.5000      evap           1.000       0.000        1
cr_evap_ad07 log    factor   0.7000000      0.70000        1.5000      evap           1.000       0.000        1
cr_evap_ad08 log    factor   0.7606300      0.70000        1.5000      evap           1.000       0.000        1
cr_evap_ad09 log    factor    1.018900      0.70000        1.5000      evap           1.000       0.000        1
cr_evap_ad10 log    factor    1.403000      0.70000        1.5000      evap           1.000       0.000        1
cr_evap_ad11 log    factor    1.168800      0.70000        1.5000      evap           1.000       0.000        1
cr_evap_ad12 log    factor   0.8610900      0.70000        1.5000      evap           1.000       0.000        1
tr_evap_ad01 log    factor    1.089520      0.70000        1.5000      evap           1.000       0.000        1
tr_evap_ad02 log    factor   0.7000000      0.70000        1.5000      evap           1.000       0.000        1
tr_evap_ad03 log    factor   0.7000000      0.70000        1.5000      evap           1.000       0.000        1
tr_evap_ad04 log    factor   0.7000000      0.70000        1.5000      evap           1.000       0.000        1
tr_evap_ad05 log    factor   0.7000000      0.70000        1.5000      evap           1.000       0.000        1
tr_evap_ad06 log    factor   0.7000000      0.70000        1.5000      evap           1.000       0.000        1
tr_evap_ad07 log    factor   0.8805200      0.70000        1.5000      evap           1.000       0.000        1
tr_evap_ad08 log    factor    1.009420      0.70000        1.5000      evap           1.000       0.000        1
tr_evap_ad09 log    factor    1.500000      0.70000        1.5000      evap           1.000       0.000        1
tr_evap_ad10 log    factor    1.500000      0.70000        1.5000      evap           1.000       0.000        1
tr_evap_ad11 log    factor   0.7502130      0.70000        1.5000      evap           1.000       0.000        1
tr_evap_ad12 log    factor   0.7537130      0.70000        1.5000      evap           1.000       0.000        1
potet_sublim fixed  factor   0.1000000      0.10000       0.75000      snow           1.000       0.000        1
ssr2gw_exp   log    factor   0.3963180      0.10000        3.1000      szone          1.000      -.1000        1
soil2gw_max0 log    factor   0.1042690      0.10000        5.1000      szone          1.000      -.1000        1
soil2gw_max1 log    factor   0.1000000      0.10000        5.1000      szone          1.000      -.1000        1
soil2gw_max2 log    factor   0.1000000      0.10000        5.1000      szone          1.000      -.1000        1
soil2gw_max3 log    factor   0.1000000      0.10000        5.1000      szone          1.000      -.1000        1
soil2gw_max4 log    factor   0.1001440      0.10000        5.1000      szone          1.000      -.1000        1
soil2gw_max5 log    factor   0.1005570      0.10000        5.1000      szone          1.000      -.1000        1
soil2gw_max6 log    factor   0.1032100      0.10000        5.1000      szone          1.000      -.1000        1
soil2gw_max7 log    factor   0.1000000      0.10000        5.1000      szone          1.000      -.1000        1
soil2gw_max8 log    factor   0.1000000      0.10000        5.1000      szone          1.000      -.1000        1
crad_coef    fixed  factor   0.3677400      0.10000       0.70000      solrad         1.000       0.000        1
sat_threshol fixed  factor    6.000000      1.0000        999.00      precip         1.000       0.000        1
tmax_allsnow fixed  factor    22.30000      0.10000        27.800      precip         1.000      -23.40        1
crad_exp     fixed  factor   0.5766300      0.20000       0.80000      solrad         1.000       0.000        1
pref_flow_de fixed  factor   0.1000000      0.10000        1.1000      szone          1.000      -.1000        1
gwsink_coef0 fixed  factor   0.1001780      0.10000        1.1000      prms           1.000      -.1000        1
gwsink_coef1 fixed  factor   0.1021570      0.10000        1.1000      prms           1.000      -.1000        1
gwsink_coef2 fixed  factor   0.8264950      0.10000        1.1000      prms           1.000      -.1000        1
gwsink_coef3 fixed  factor   0.1418680      0.10000        1.1000      prms           1.000      -.1000        1
gwsink_coef4 fixed  factor   0.1000000      0.10000        1.1000      prms           1.000      -.1000        1
gwsink_coef5 fixed  factor   0.1079950      0.10000        1.1000      prms           1.000      -.1000        1
gwsink_coef6 fixed  factor   0.1000000      0.10000        1.1000      prms           1.000      -.1000        1
gwsink_coef7 fixed  factor   0.1005810      0.10000        1.1000      prms           1.000      -.1000        1
gwsink_coef8 fixed  factor   0.1010000      0.10000        1.1000      prms           1.000      -.1000        1
smidx_coef   log    factor   0.2708460      1.00000e-04    1.0000      runoff         1.000       0.000        1
albset_snm   fixed  factor   6.6071500E-02  1.00000e-03    1.0000      snow           1.000       0.000        1
albset_rna   fixed  factor    1.052800      0.10000        1.1000      snow           1.000      -.1000        1
sfres_seep01 fixed  factor    1640.800      0.10000        2000.0      sfres          1.000      -.1000        1
sfres_seep02 fixed  factor    1643.000      0.10000        2000.0      sfres          1.000      -.1000        1
sfres_seep03 fixed  factor    1620.100      0.10000        2000.0      sfres          1.000      -.1000        1
sfres_seep04 fixed  factor    1636.400      0.10000        2000.0      sfres          1.000      -.1000        1
sfres_seep05 fixed  factor    1637.800      0.10000        2000.0      sfres          1.000      -.1000        1
sfres_seep06 fixed  factor    1643.200      0.10000        2000.0      sfres          1.000      -.1000        1
sfres_seep07 fixed  factor    1624.000      0.10000        2000.0      sfres          1.000      -.1000        1
sfres_seep08 fixed  factor    1624.000      0.10000        2000.0      sfres          1.000      -.1000        1
sfres_seep09 fixed  factor    1626.300      0.10000        2000.0      sfres          1.000      -.1000        1
sfres_seep10 fixed  factor    1623.000      0.10000        2000.0      sfres          1.000      -.1000        1
sfres_seep11 fixed  factor    1642.100      0.10000        2000.0      sfres          1.000      -.1000        1
sfres_seep12 fixed  factor    1623.000      0.10000        2000.0      sfres          1.000      -.1000        1
sfres_seep13 fixed  factor    1648.000      0.10000        2000.0      sfres          1.000      -.1000        1
sfres_seep14 fixed  factor    1650.900      0.10000        2000.0      sfres          1.000      -.1000        1
sfres_seep15 fixed  factor    1644.700      0.10000        2000.0      sfres          1.000      -.1000        1
sfres_seep16 fixed  factor    1628.900      0.10000        2000.0      sfres          1.000      -.1000        1
sfres_seep17 fixed  factor    1688.000      0.10000        2000.0      sfres          1.000      -.1000        1
sfres_seep18 fixed  factor    1624.000      0.10000        2000.0      sfres          1.000      -.1000        1
sfres_seep19 fixed  factor    1618.100      0.10000        2000.0      sfres          1.000      -.1000        1
sfres_seep20 fixed  factor    1654.900      0.10000        2000.0      sfres          1.000      -.1000        1
sfres_seep21 fixed  factor    1633.200      0.10000        2000.0      sfres          1.000      -.1000        1
sfres_seep22 fixed  factor    1623.700      0.10000        2000.0      sfres          1.000      -.1000        1
sfres_seep23 fixed  factor    1623.700      0.10000        2000.0      sfres          1.000      -.1000        1
sfres_seep24 fixed  factor    1641.700      0.10000        2000.0      sfres          1.000      -.1000        1
sfres_seep25 fixed  factor    1633.900      0.10000        2000.0      sfres          1.000      -.1000        1
sfres_seep26 fixed  factor    1646.000      0.10000        2000.0      sfres          1.000      -.1000        1
sfres_seep27 fixed  factor    1647.300      0.10000        2000.0      sfres          1.000      -.1000        1
sfres_seep28 fixed  factor    1622.100      0.10000        2000.0      sfres          1.000      -.1000        1
sfres_seep29 fixed  factor    1640.800      0.10000        2000.0      sfres          1.000      -.1000        1
sfres_seep30 fixed  factor    1614.500      0.10000        2000.0      sfres          1.000      -.1000        1
albset_sna   fixed  factor   3.5148200E-03  1.00000e-03    1.0000      snow           1.000       0.000        1
fastcoef_li0 fixed  factor   0.5217500      0.10000        1.1000      szone          1.000      -.1000        1
fastcoef_li1 fixed  factor   0.5217500      0.10000        1.1000      szone          1.000      -.1000        1
fastcoef_li2 fixed  factor   0.5099400      0.10000        1.1000      szone          1.000      -.1000        1
fastcoef_li3 fixed  factor   0.6941100      0.10000        1.1000      szone          1.000      -.1000        1
fastcoef_li4 fixed  factor   0.7931600      0.10000        1.1000      szone          1.000      -.1000        1
fastcoef_li5 fixed  factor    1.100000      0.10000        1.1000      szone          1.000      -.1000        1
fastcoef_li6 fixed  factor   0.6294700      0.10000        1.1000      szone          1.000      -.1000        1
fastcoef_li7 fixed  factor   0.5039000      0.10000        1.1000      szone          1.000      -.1000        1
fastcoef_li8 fixed  factor   0.6786300      0.10000        1.1000      szone          1.000      -.1000        1
gw_seep_co01 fixed  factor   0.1107650      0.10000        1.1000      sfres          1.000      -.1000        1
gw_seep_co02 fixed  factor   0.1149860      0.10000        1.1000      sfres          1.000      -.1000        1
gw_seep_co03 fixed  factor   0.1150000      0.10000        1.1000      sfres          1.000      -.1000        1
gw_seep_co04 fixed  factor   0.1312830      0.10000        1.1000      sfres          1.000      -.1000        1
gw_seep_co05 fixed  factor   0.1168510      0.10000        1.1000      sfres          1.000      -.1000        1
gw_seep_co06 fixed  factor   0.1099870      0.10000        1.1000      sfres          1.000      -.1000        1
gw_seep_co07 fixed  factor   0.1162030      0.10000        1.1000      sfres          1.000      -.1000        1
gw_seep_co08 fixed  factor   0.1150070      0.10000        1.1000      sfres          1.000      -.1000        1
gw_seep_co09 fixed  factor   0.1150000      0.10000        1.1000      sfres          1.000      -.1000        1
gw_seep_co10 fixed  factor   0.1150180      0.10000        1.1000      sfres          1.000      -.1000        1
gw_seep_co11 fixed  factor   0.1093590      0.10000        1.1000      sfres          1.000      -.1000        1
gw_seep_co12 fixed  factor   0.1163460      0.10000        1.1000      sfres          1.000      -.1000        1
gw_seep_co13 fixed  factor   0.1144040      0.10000        1.1000      sfres          1.000      -.1000        1
gw_seep_co14 fixed  factor   0.1157220      0.10000        1.1000      sfres          1.000      -.1000        1
gw_seep_co15 fixed  factor   0.1170360      0.10000        1.1000      sfres          1.000      -.1000        1
gw_seep_co16 fixed  factor   0.1163460      0.10000        1.1000      sfres          1.000      -.1000        1
gw_seep_co17 fixed  factor   0.1150430      0.10000        1.1000      sfres          1.000      -.1000        1
gw_seep_co18 fixed  factor   0.1163460      0.10000        1.1000      sfres          1.000      -.1000        1
gw_seep_co19 fixed  factor   0.1150000      0.10000        1.1000      sfres          1.000      -.1000        1