pcf
* control data
restart estimation
    183  41237      7      0     79
     2     1   single   point   1   0   0
5.0   2.0    0.3    0.03    10  999
5.0   5.0   1.0e-3
0.1  noaui
0   .005  4   4  .005   4
1    1    1
* parameter groups
4_runoff     relative     1.0000E-02   0.000      switch      2.000      parabolic
0_runoff     relative     1.0000E-02   0.000      switch      2.000      parabolic
0_snow       relative     1.0000E-02   0.000      switch      2.000      parabolic
0_szone      relative     1.0000E-02   0.000      switch      2.000      parabolic
1_szone      relative     0.5000E-03   0.000      switch      2.000      parabolic
4_szone      relative     1.0000E-02   0.000      switch      2.000      parabolic
2_precip     relative     1.0000E-02   0.000      switch      2.000      parabolic
* parameter data
smdxex_m     log    factor       0.30000       0.20000       0.80000      4_runoff       1.000       0.000        1
snoinm_sm01  log    factor        4.1000       0.10000        20.100      0_runoff       1.000      -.1000        1
snoinm_sm02  log    factor        4.1000       0.10000        20.100      0_runoff       1.000      -.1000        1
snoinm_sm03  log    factor        4.1000       0.10000        20.100      0_runoff       1.000      -.1000        1
snoinm_sm04  log    factor        4.1000       0.10000        20.100      0_runoff       1.000      -.1000        1
snoinm_sm05  log    factor        4.1000       0.10000        20.100      0_runoff       1.000      -.1000        1
snoinm_sm06  log    factor        4.1000       0.10000        20.100      0_runoff       1.000      -.1000        1
snoinm_sm07  log    factor        4.1000       0.10000        20.100      0_runoff       1.000      -.1000        1
snoinm_sm08  log    factor        4.1000       0.10000        20.100      0_runoff       1.000      -.1000        1
snoinm_sm09  log    factor        4.1000       0.10000        20.100      0_runoff       1.000      -.1000        1
snoinm_sm10  log    factor        4.1000       0.10000        20.100      0_runoff       1.000      -.1000        1
snoinm_sm11  log    factor        4.1000       0.10000        20.100      0_runoff       1.000      -.1000        1
snoinm_sm12  log    factor        4.1000       0.10000        20.100      0_runoff       1.000      -.1000        1
snoinm_sm13  log    factor        4.1000       0.10000        20.100      0_runoff       1.000      -.1000        1
snoinm_sm14  log    factor        4.1000       0.10000        20.100      0_runoff       1.000      -.1000        1
denmax_m     log    factor       0.60000       0.10000       0.80000      0_snow         1.000       0.000        1
ss2gwx_m     log    factor        1.1300       0.10000        3.1000      0_szone        1.000      -.1000        1
so2gwm_sm01  log    factor       0.13717       0.13717        4.9347      4_szone        1.000      -.1000        1
so2gwm_sm02  log    factor       0.13241       0.13241        4.9330      4_szone        1.000      -.1000        1
so2gwm_sm03  log    factor       0.14330       0.14330        4.9696      4_szone        1.000      -.1000        1
so2gwm_sm04  log    factor       0.16371       0.16371        4.9885      4_szone        1.000      -.1000        1
so2gwm_sm05  log    factor       0.15285       0.15285        4.9871      4_szone        1.000      -.1000        1
so2gwm_sm06  log    factor       0.13635       0.13635        4.9932      4_szone        1.000      -.1000        1
so2gwm_sm07  log    factor       0.15135       0.15135        4.9848      4_szone        1.000      -.1000        1
so2gwm_sm08  log    factor       0.13001       0.13001        4.9749      4_szone        1.000      -.1000        1
so2gwm_sm09  log    factor       0.10871       0.10871        5.0823      4_szone        1.000      -.1000        1
so2gwm_sm10  log    factor       0.14098       0.14098        4.9976      4_szone        1.000      -.1000        1
so2gwm_sm11  log    factor       0.12291       0.12291        4.9935      4_szone        1.000      -.1000        1
so2gwm_sm12  log    factor       0.12681       0.12681        4.9777      4_szone        1.000      -.1000        1
so2gwm_sm13  log    factor       0.10605       0.10605        5.0643      4_szone        1.000      -.1000        1
so2gwm_sm14  log    factor       0.10000       0.10000        5.1000      4_szone        1.000      -.1000        1
satthr_sm01  log    factor        8.2978        3.8554        996.45      4_szone        1.000       0.000        1
satthr_sm02  log    factor        7.8975        3.3684        996.76      4_szone        1.000       0.000        1
satthr_sm03  log    factor        7.4062        3.2513        996.93      4_szone        1.000       0.000        1
satthr_sm04  log    factor        7.4933        3.6265        995.84      4_szone        1.000       0.000        1
satthr_sm05  log    factor        7.1275        2.8466        996.51      4_szone        1.000       0.000        1
satthr_sm06  log    factor        8.2172        3.1515        996.35      4_szone        1.000       0.000        1
satthr_sm07  log    factor        8.1714        2.5678        998.24      4_szone        1.000       0.000        1
satthr_sm08  log    factor        7.6042        2.9406        996.53      4_szone        1.000       0.000        1
satthr_sm09  log    factor        8.3882        2.2603        998.34      4_szone        1.000       0.000        1
satthr_sm10  log    factor        7.5221        2.9466        997.21      4_szone        1.000       0.000        1
satthr_sm11  log    factor        8.7816        2.4255        997.45      4_szone        1.000       0.000        1
satthr_sm12  log    factor        7.4521        3.2191        996.93      4_szone        1.000       0.000        1
satthr_sm13  log    factor        8.5741        1.3545        998.23      4_szone        1.000       0.000        1
satthr_sm14  log    factor        7.4555        1.8270        998.44      4_szone        1.000       0.000        1
prfldn_sm01  log    factor       0.11749       0.10843        1.0686      0_szone        1.000      -.1000        1
prfldn_sm02  log    factor       0.12172       0.11139        1.0738      0_szone        1.000      -.1000        1
prfldn_sm03  log    factor       0.12236       0.11033        1.0756      0_szone        1.000      -.1000        1
prfldn_sm04  log    factor       0.12144       0.11138        1.0660      0_szone        1.000      -.1000        1
prfldn_sm05  log    factor       0.12403       0.11341        1.0734      0_szone        1.000      -.1000        1
prfldn_sm06  log    factor       0.11842       0.10924        1.0789      0_szone        1.000      -.1000        1
prfldn_sm07  log    factor       0.11384       0.10202        1.0975      0_szone        1.000      -.1000        1
prfldn_sm08  log    factor       0.12321       0.11076        1.0767      0_szone        1.000      -.1000        1
prfldn_sm09  log    factor       0.11746       0.10468        1.0868      0_szone        1.000      -.1000        1
prfldn_sm10  log    factor       0.12127       0.10788        1.0777      0_szone        1.000      -.1000        1
prfldn_sm11  log    factor       0.11525       0.10565        1.0860      0_szone        1.000      -.1000        1
prfldn_sm12  log    factor       0.12434       0.11220        1.0754      0_szone        1.000      -.1000        1
prfldn_sm13  log    factor       0.11483       0.10333        1.0969      0_szone        1.000      -.1000        1
prfldn_sm14  log    factor       0.12654       0.10578        1.0910      0_szone        1.000      -.1000        1
smdxcf_sm01  log    factor       7.85057E-03   2.36843E-03   0.98294      4_runoff       1.000       0.000        1
smdxcf_sm02  log    factor       8.91659E-03   3.31942E-03   0.97942      4_runoff       1.000       0.000        1
smdxcf_sm03  log    factor       8.20572E-03   2.70174E-03   0.99014      4_runoff       1.000       0.000        1
smdxcf_sm04  log    factor       8.71915E-03   3.23725E-03   0.98506      4_runoff       1.000       0.000        1
smdxcf_sm05  log    factor       9.85016E-03   4.02508E-03   0.98218      4_runoff       1.000       0.000        1
smdxcf_sm06  log    factor       7.44470E-03   1.91235E-03   0.98524      4_runoff       1.000       0.000        1
smdxcf_sm07  log    factor       6.57273E-03   7.24576E-04   0.99892      4_runoff       1.000       0.000        1
smdxcf_sm08  log    factor       9.12198E-03   3.51062E-03   0.98130      4_runoff       1.000       0.000        1
smdxcf_sm09  log    factor       7.28116E-03   1.59417E-03   0.99653      4_runoff       1.000       0.000        1
smdxcf_sm10  log    factor       8.22510E-03   2.47062E-03   0.98446      4_runoff       1.000       0.000        1
smdxcf_sm11  log    factor       7.38114E-03   1.79302E-03   0.99364      4_runoff       1.000       0.000        1
smdxcf_sm12  log    factor       9.68638E-03   4.06241E-03   0.98701      4_runoff       1.000       0.000        1
smdxcf_sm13  log    factor       8.30469E-03   2.81434E-03   0.99646      4_runoff       1.000       0.000        1
smdxcf_sm14  log    factor       1.08353E-02   3.33313E-03   0.99640      4_runoff       1.000       0.000        1
fintln_sm01  log    factor       0.13097       0.13062       0.73530      4_szone        1.000      -.1000        1
fintln_sm02  log    factor       0.16234       0.16024       0.48890      4_szone        1.000      -.1000        1
fintln_sm03  log    factor       0.15333       0.15262       0.55650      4_szone        1.000      -.1000        1
fintln_sm04  log    factor       0.15938       0.15890       0.15938      1_szone        1.000      -.1000        1
fintln_sm05  log    factor       0.18073       0.17793       0.18073      1_szone        1.000      -.1000        1
fintln_sm06  log    factor       0.12424       0.12260       0.87450      4_szone        1.000      -.1000        1
fintln_sm07  log    factor       0.10943       0.10636        1.0941      4_szone        1.000      -.1000        1
fintln_sm08  log    factor       0.16265       0.16116       0.16265      1_szone        1.000      -.1000        1
fintln_sm09  log    factor       0.11315       0.11093        1.0818      4_szone        1.000      -.1000        1
fintln_sm10  log    factor       0.19895       0.19583       0.22476      4_szone        1.000      -.1000        1
fintln_sm11  log    factor       0.12104       0.11931        1.0264      4_szone        1.000      -.1000        1
fintln_sm12  log    factor       0.28448       0.28292       0.28448      1_szone        1.000      -.1000        1
fintln_sm13  log    factor       0.12020       0.11980        1.0752      4_szone        1.000      -.1000        1
fintln_sm14  log    factor       0.27219       0.25323       0.78011      4_szone        1.000      -.1000        1
fintsq_m     log    factor       0.90000       0.10000        1.1000      4_szone        1.000      -.1000        1
srechm_sm01  tied   factor       0.13097       0.10000        9.5629      4_szone        1.000      -.1000        1
srechm_sm02  tied   factor       0.16234       0.10000        9.6010      4_szone        1.000      -.1000        1
srechm_sm03  tied   factor       0.15333       0.10000        9.5984      4_szone        1.000      -.1000        1
srechm_sm04  tied   factor       0.15938       0.10000        9.5954      4_szone        1.000      -.1000        1
srechm_sm05  tied   factor       0.18073       0.10000        9.6137      4_szone        1.000      -.1000        1
srechm_sm06  tied   factor       0.12424       0.10000        9.5569      4_szone        1.000      -.1000        1
srechm_sm07  tied   factor       0.10943       0.10000        9.5554      4_szone        1.000      -.1000        1
srechm_sm08  tied   factor       0.16265       0.10000        9.6111      4_szone        1.000      -.1000        1
srechm_sm09  tied   factor       0.11315       0.10000        9.5617      4_szone        1.000      -.1000        1
srechm_sm10  tied   factor       0.19895       0.10000        9.6468      4_szone        1.000      -.1000        1
srechm_sm11  tied   factor       0.12104       0.10000        9.5560      4_szone        1.000      -.1000        1
srechm_sm12  tied   factor       0.28448       0.10000        9.7308      4_szone        1.000      -.1000        1
srechm_sm13  tied   factor       0.12020       0.10000        9.5639      4_szone        1.000      -.1000        1
srechm_sm14  tied   factor       0.27219       0.10000        9.7595      4_szone        1.000      -.1000        1
sintsq_m     log    factor       0.12000       0.10000        1.1000      4_szone        1.000      -.1000        1
impsto_sm01  log    factor       0.13411       0.12769        9.9970      4_szone        1.000      -.1000        1
impsto_sm02  log    factor       0.14801       0.13745        10.014      4_szone        1.000      -.1000        1
impsto_sm03  log    factor       0.15011       0.13395        10.020      4_szone        1.000      -.1000        1
impsto_sm04  log    factor       0.14709       0.13738        9.9884      4_szone        1.000      -.1000        1
impsto_sm05  log    factor       0.15561       0.14405        10.012      4_szone        1.000      -.1000        1
impsto_sm06  log    factor       0.13717       0.13035        10.031      4_szone        1.000      -.1000        1
impsto_sm07  log    factor       0.12213       0.10664        10.092      4_szone        1.000      -.1000        1
impsto_sm08  log    factor       0.15291       0.13536        10.024      4_szone        1.000      -.1000        1
impsto_sm09  log    factor       0.13401       0.11537        10.057      4_szone        1.000      -.1000        1
impsto_sm10  log    factor       0.14655       0.12589        10.027      4_szone        1.000      -.1000        1
impsto_sm11  log    factor       0.12675       0.11857        10.054      4_szone        1.000      -.1000        1
impsto_sm12  log    factor       0.15661       0.14008        10.019      4_szone        1.000      -.1000        1
impsto_sm13  log    factor       0.12536       0.11096        10.090      4_szone        1.000      -.1000        1
impsto_sm14  log    factor       0.16386       0.11901        10.071      4_szone        1.000      -.1000        1
ss2gwr_sm01  log    factor       0.6041       0.11288        1.0676      4_szone        1.000      -.1000        1
ss2gwr_sm02  log    factor       0.6122       0.11376        1.0074      4_szone        1.000      -.1000        1
ss2gwr_sm03  log    factor       0.6208       0.11519       0.94982      4_szone        1.000      -.1000        1
ss2gwr_sm04  log    factor       0.567       0.11120        1.0607      4_szone        1.000      -.1000        1
ss2gwr_sm05  log    factor       0.6113       0.11281        1.0046      4_szone        1.000      -.1000        1
ss2gwr_sm06  log    factor       0.5956       0.11268        1.0636      4_szone        1.000      -.1000        1
ss2gwr_sm07  log    factor       0.5609       0.10910        1.0849      4_szone        1.000      -.1000        1
ss2gwr_sm08  log    factor       0.6101       0.11262        1.0039      4_szone        1.000      -.1000        1
ss2gwr_sm09  log    factor       0.5351       0.10971        1.0910      4_szone        1.000      -.1000        1
ss2gwr_sm10  log    factor       0.6464       0.12005        1.0266      4_szone        1.000      -.1000        1
ss2gwr_sm11  log    factor       0.5982       0.11243        1.0795      4_szone        1.000      -.1000        1
ss2gwr_sm12  log    factor       0.7096       0.13045       0.97673      4_szone        1.000      -.1000        1
ss2gwr_sm13  log    factor       0.5287       0.10544        1.0925      4_szone        1.000      -.1000        1
ss2gwr_sm14  log    factor       0.8114       0.12924        1.0623      4_szone        1.000      -.1000        1
sintln_sm01  log    factor       0.10362       0.10122        1.0855      4_szone        1.000      -.1000        1
sintln_sm02  log    factor       0.10486       0.10240        1.0757      4_szone        1.000      -.1000        1
sintln_sm03  log    factor       0.10451       0.10209        1.0784      4_szone        1.000      -.1000        1
sintln_sm04  log    factor       0.10484       0.10244        1.0577      4_szone        1.000      -.1000        1
sintln_sm05  log    factor       0.10623       0.10373        1.0213      4_szone        1.000      -.1000        1
sintln_sm06  log    factor       0.10335       0.10090        1.0910      4_szone        1.000      -.1000        1
sintln_sm07  log    factor       0.10276       0.10025        1.0998      4_szone        1.000      -.1000        1
sintln_sm08  log    factor       0.10527       0.10283        1.0170      4_szone        1.000      -.1000        1
sintln_sm09  log    factor       0.10291       0.10043        1.0993      4_szone        1.000      -.1000        1
sintln_sm10  log    factor       0.10632       0.10381        1.0652      4_szone        1.000      -.1000        1
sintln_sm11  log    factor       0.10322       0.10077        1.0971      4_szone        1.000      -.1000        1
sintln_sm12  log    factor       0.11004       0.10759        1.0618      4_szone        1.000      -.1000        1
sintln_sm13  log    factor       0.10319       0.10079        1.0990      4_szone        1.000      -.1000        1
sintln_sm14  log    factor       0.10923       0.10609        1.0873      4_szone        1.000      -.1000        1
smoism_sm01  log    factor        3.1346        1.0212        19.856      4_szone        1.000      -.1000        1
smoism_sm02  log    factor        3.0072       0.86507        19.767      4_szone        1.000      -.1000        1
smoism_sm03  log    factor        2.9968       0.82149        19.794      4_szone        1.000      -.1000        1
smoism_sm04  log    factor        3.0203        1.0942        19.765      4_szone        1.000      -.1000        1
smoism_sm05  log    factor        2.9516       0.89093        19.679      4_szone        1.000      -.1000        1
smoism_sm06  log    factor        3.1078       0.72672        19.834      4_szone        1.000      -.1000        1
smoism_sm07  log    factor        3.2468       0.16893        20.049      4_szone        1.000      -.1000        1
smoism_sm08  log    factor        2.9666       0.78005        19.784      4_szone        1.000      -.1000        1
smoism_sm09  log    factor        3.1415       0.47981        19.959      4_szone        1.000      -.1000        1
smoism_sm10  log    factor        3.0286       0.76523        19.842      4_szone        1.000      -.1000        1
smoism_sm11  log    factor        3.2102       0.45629        19.949      4_szone        1.000      -.1000        1
smoism_sm12  log    factor        2.9410       0.82918        19.745      4_szone        1.000      -.1000        1
smoism_sm13  log    factor        3.2130       0.19072        20.002      4_szone        1.000      -.1000        1
smoism_sm14  log    factor        2.8733       0.37264        19.914      4_szone        1.000      -.1000        1
rainadj_01   fixed  factor        1.0000       0.75000        2.0000      2_precip       1.000       0.000        1
rainadj_02   fixed  factor        1.0000       0.75000        2.0000      2_precip       1.000       0.000        1
rainadj_03   fixed  factor        1.0000       0.75000        2.0000      2_precip       1.000       0.000        1
rainadj_04   fixed  factor        1.0000       0.75000        2.0000      2_precip       1.000       0.000        1
rainadj_05   fixed  factor        1.0000       0.75000        2.0000      2_precip       1.000       0.000        1
rainadj_06   fixed  factor        1.0000       0.75000        2.0000      2_precip       1.000       0.000        1
rainadj_07   fixed  factor        1.0000       0.75000        2.0000      2_precip       1.000       0.000        1
rainadj_08   fixed  factor        1.0000       0.75000        2.0000      2_precip       1.000       0.000        1
rainadj_09   fixed  factor        1.0000       0.75000        2.0000      2_precip       1.000       0.000        1
rainadj_10   fixed  factor        1.0000       0.75000        2.0000      2_precip       1.000       0.000        1
rainadj_11   fixed  factor        1.0000       0.75000        2.0000      2_precip       1.000       0.000        1
rainadj_12   fixed  factor        1.0000       0.75000        2.0000      2_precip       1.000       0.000        1
snowadj_01   fixed  factor        1.0000       0.75000        2.0000      2_precip       1.000       0.000        1
snowadj_02   fixed  factor        1.0000       0.75000        2.0000      2_precip       1.000       0.000        1
snowadj_03   fixed  factor        1.0000       0.75000        2.0000      2_precip       1.000       0.000        1
snowadj_04   fixed  factor        1.0000       0.75000        2.0000      2_precip       1.000       0.000        1
snowadj_05   fixed  factor        1.0000       0.75000        2.0000      2_precip       1.000       0.000        1
snowadj_06   fixed  factor        1.0000       0.75000        2.0000      2_precip       1.000       0.000        1
snowadj_07   fixed  factor        1.0000       0.75000        2.0000      2_precip       1.000       0.000        1
snowadj_08   fixed  factor        1.0000       0.75000        2.0000      2_precip       1.000       0.000        1
snowadj_09   fixed  factor        1.0000       0.75000        2.0000      2_precip       1.000       0.000        1
snowadj_10   fixed  factor        1.0000       0.75000        2.0000      2_precip       1.000       0.000        1
snowadj_11   fixed  factor        1.0000       0.75000        2.0000      2_precip       1.000       0.000        1
snowadj_12   fixed  factor        1.0000       0.75000        2.0000      2_precip       1.000       0.000        1
srechm_sm01  smoism_sm01
srechm_sm02  smoism_sm02
srechm_sm03  smoism_sm03
srechm_sm04  smoism_sm04
srechm_sm05  smoism_sm05
srechm_sm06  smoism_sm06
srechm_sm07  smoism_sm07
srechm_sm08  smoism_sm08
srechm_sm09  smoism_sm09
srechm_sm10  smoism_sm10
srechm_sm11  smoism_sm11
srechm_sm12  smoism_sm12
srechm_sm13  smoism_sm13
srechm_sm14  smoism_sm14
* observation groups
cwl1_s
cwl2_s
cwl3_s
cwl4_s
cwl5_s
cwl6_s
cwl7_s
mwl1_s
mwl2_s
mwl3_s
mwl4_s
mwl5_s
mwl6_s
mwl7_s
mwl8_s
mwl9_s
mwl10_s
spr_sl
spr_sa
spr_smm
spr_smb
axe_sl
axe_sa
axe_smm
axe_smb
mil_sl
mil_sa
mil_smm
mil_smb
scu_sl
scu_sa
scu_smm
scu_smb
brl_sl
brl_sa
brl_smm
brl_smb
bru_sl
bru_sa
bru_smm
bru_smb
crl_sl
crl_sa
crl_smm
crl_smb
lrl_sl
lrl_sa
lrl_smm
lrl_smb
lru_sl
lru_sa
lru_smm
lru_smb
srl_sl
srl_sa
srl_smm
srl_smb
sru_sl
sru_sa
sru_smm
sru_smb
thp_sl
thp_sa
thp_smm
thp_smb
cwl1_sm
cwl1_sr
cwl2_sm
cwl2_sr
cwl3_sm
cwl3_sr
cwl4_sm
cwl4_sr
cwl5_sm
cwl5_sr
cwl6_sm
cwl6_sr
cwl7_sm
cwl7_sr
* observation data
cwl1_s_1               290.9200         2.60000      cwl1_s
cwl1_s_2               291.0900         2.60000      cwl1_s
cwl1_s_3               291.1400         2.60000      cwl1_s
cwl1_s_4               291.0700         2.60000      cwl1_s
cwl1_s_5               291.2000         2.60000      cwl1_s
cwl1_s_6               291.5700         2.60000      cwl1_s
cwl1_s_7               291.6200         2.60000      cwl1_s
cwl1_s_8               291.6100         2.60000      cwl1_s
cwl1_s_9               291.6900         2.60000      cwl1_s
cwl1_s_10              291.7500         2.60000      cwl1_s
cwl1_s_11              291.7800         2.60000      cwl1_s
cwl1_s_12              291.7400         2.60000      cwl1_s
cwl1_s_13              291.7800         2.60000      cwl1_s
cwl1_s_14              291.9000         2.60000      cwl1_s
cwl1_s_15              291.7800         2.60000      cwl1_s
cwl1_s_16              291.6700         2.60000      cwl1_s
cwl1_s_17              291.5800         2.60000      cwl1_s
cwl1_s_18              291.5200         2.60000      cwl1_s
cwl1_s_19              291.4800         2.60000      cwl1_s
cwl1_s_20              291.4500         2.60000      cwl1_s
cwl1_s_21              291.4200         2.60000      cwl1_s
cwl1_s_22              291.4000         2.60000      cwl1_s
cwl1_s_23              291.4000         2.60000      cwl1_s
cwl1_s_24              291.3900         2.60000      cwl1_s
cwl1_s_25              291.3800         2.60000      cwl1_s
cwl1_s_26              291.3800         2.60000      cwl1_s
cwl1_s_27              291.3600         2.60000      cwl1_s
cwl1_s_28              291.3500         2.60000      cwl1_s
cwl1_s_29              291.5000         2.60000      cwl1_s
cwl1_s_30              291.4700         2.60000      cwl1_s
cwl1_s_31              291.4900         2.60000      cwl1_s
cwl1_s_32              291.4900         2.60000      cwl1_s
cwl1_s_33              291.4900         2.60000      cwl1_s
cwl1_s_34              291.4800         2.60000      cwl1_s
cwl1_s_35              291.5200         2.60000      cwl1_s
cwl1_s_36              291.5400         2.60000      cwl1_s
cwl1_s_37              291.5300         2.60000      cwl1_s
cwl1_s_38              291.5100         2.60000      cwl1_s
cwl1_s_39              291.4900         2.60000      cwl1_s
cwl1_s_40              291.4600         2.60000      cwl1_s
cwl1_s_41              291.4300         2.60000      cwl1_s
cwl1_s_42              291.4100         2.60000      cwl1_s
cwl1_s_43              291.3900         2.60000      cwl1_s
cwl1_s_44              291.3800         2.60000      cwl1_s
cwl1_s_45              291.3700         2.60000      cwl1_s
cwl1_s_46              291.3700         2.60000      cwl1_s
cwl1_s_47              291.3400         2.60000      cwl1_s
cwl1_s_48              291.3200         2.60000      cwl1_s
cwl1_s_49              291.3100         2.60000      cwl1_s
cwl1_s_50              291.3100         2.60000      cwl1_s
cwl1_s_51              291.3000         2.60000      cwl1_s
cwl1_s_52              291.2900         2.60000      cwl1_s
cwl1_s_53              291.2900         2.60000      cwl1_s
cwl1_s_54              291.2800         2.60000      cwl1_s
cwl1_s_55              291.2700         2.60000      cwl1_s
cwl1_s_56              291.2500         2.60000      cwl1_s
cwl1_s_57              291.2400         2.60000      cwl1_s
cwl1_s_58              291.2300         2.60000      cwl1_s
cwl1_s_59              291.2400         2.60000      cwl1_s
cwl1_s_60              291.2600         2.60000      cwl1_s
cwl1_s_61              291.2300         2.60000      cwl1_s
cwl1_s_62              291.2600         2.60000      cwl1_s
cwl1_s_63              291.2900         2.60000      cwl1_s
cwl1_s_64              291.2900         2.60000      cwl1_s
cwl1_s_65              291.3100         2.60000      cwl1_s
cwl1_s_66              291.3000         2.60000      cwl1_s
cwl1_s_67              291.3000         2.60000      cwl1_s
cwl1_s_68              291.3000         2.60000      cwl1_s
cwl1_s_69              291.2800         2.60000      cwl1_s
cwl1_s_70              291.3700         2.60000      cwl1_s
cwl1_s_71              291.3500         2.60000      cwl1_s
cwl1_s_72              291.3300         2.60000      cwl1_s
cwl1_s_73              291.3200         2.60000      cwl1_s
cwl1_s_74              291.3100         2.60000      cwl1_s
cwl1_s_75              291.3100         2.60000      cwl1_s
cwl1_s_76              291.2800         2.60000      cwl1_s
cwl1_s_77              291.2700         2.60000      cwl1_s
cwl1_s_78              291.3000         2.60000      cwl1_s
cwl1_s_79              291.2700         2.60000      cwl1_s
cwl1_s_80              291.3000         2.60000      cwl1_s
cwl1_s_81              291.3100         2.60000      cwl1_s
cwl1_s_82              291.2900         2.60000      cwl1_s
cwl1_s_83              291.3000         2.60000      cwl1_s
cwl1_s_84              291.2900         2.60000      cwl1_s
cwl1_s_85              291.3600         2.60000      cwl1_s
cwl1_s_86              291.4900         2.60000      cwl1_s
cwl1_s_87              291.4200         2.60000      cwl1_s
cwl1_s_88              291.4600         2.60000      cwl1_s
cwl1_s_89              291.6300         2.60000      cwl1_s
cwl1_s_90              291.6200         2.60000      cwl1_s
cwl1_s_91              291.6000         2.60000      cwl1_s
cwl1_s_92              291.6200         2.60000      cwl1_s
cwl1_s_93              291.5900         2.60000      cwl1_s
cwl1_s_94              291.5800         2.60000      cwl1_s
cwl1_s_95              291.5200         2.60000      cwl1_s
cwl1_s_96              291.5000         2.60000      cwl1_s
cwl1_s_97              291.4900         2.60000      cwl1_s
cwl1_s_98              291.4700         2.60000      cwl1_s
cwl1_s_99              291.4400         2.60000      cwl1_s
cwl1_s_100             291.4300         2.60000      cwl1_s
cwl1_s_101             291.3800         2.60000      cwl1_s
cwl1_s_102             291.3700         2.60000      cwl1_s
cwl1_s_103             291.6700         2.60000      cwl1_s
cwl1_s_104             291.6400         2.60000      cwl1_s
cwl1_s_105             291.6300         2.60000      cwl1_s
cwl1_s_106             291.6500         2.60000      cwl1_s
cwl1_s_107             291.6100         2.60000      cwl1_s
cwl1_s_108             291.5700         2.60000      cwl1_s
cwl1_s_109             291.5300         2.60000      cwl1_s