pcf
* control data
 restart regularisation
      41      11       1     630       3
            2            2       double        point            1            0            0
   10.000       2.0000      0.30000      3.00000E-02           10
   5.0000       5.0000      1.00000E-03
  0.10000      noaui
            50  1.00000E-03            4            4  1.00000E-03            4
            1            1            1
* parameter groups
 general      relative     1.00000E-02   0.0000         always_3   2.0000     outside_pts
* parameter data
 k_rb         none   factor     1.20000E-03  1.20000E-08  1.20000E-00      general   1.0000       0.0000       1
 vk_cb        none   factor     1.00000E-07  1.00000E-12  1.00000E-00      general   1.0000       0.0000       1
 hk_2         none   factor     4.00000E-05  4.00000E-12  4.00000E-00      general   1.0000       0.0000       1
 rch_1        none   factor      60          3.000e-4       880.000          general   1.0000       0.0000       1
 rch_2        none   factor      90          2.000e-4      960.000          general   1.0000       0.0000       1
 pobs1        log    factor     3.00000E-04  3.00000E-09  3.00000E-00      general   1.0000       0.0000       1
 p2           log    factor     3.00000E-04  3.00000E-09  3.00000E-00      general   1.0000       0.0000       1
 p3           log    factor     3.00000E-04  3.00000E-09  3.00000E-00      general   1.0000       0.0000       1
 p4           log    factor     3.00000E-04  3.00000E-09  3.00000E-00      general   1.0000       0.0000       1
 p5           log    factor     3.00000E-04  3.00000E-09  3.00000E-00      general   1.0000       0.0000       1
 p6           log    factor     3.00000E-04  3.00000E-09  3.00000E-00      general   1.0000       0.0000       1
 p7           log    factor     3.00000E-04  3.00000E-09  3.00000E-00      general   1.0000       0.0000       1
 pobs2        log    factor     3.00000E-04  3.00000E-09  3.00000E-00      general   1.0000       0.0000       1
 p9           log    factor     3.00000E-04  3.00000E-09  3.00000E-00      general   1.0000       0.0000       1
 p10          log    factor     3.00000E-04  3.00000E-09  3.00000E-00      general   1.0000       0.0000       1
 pobs4        log    factor     3.00000E-04  3.00000E-09  3.00000E-00      general   1.0000       0.0000       1
 p12          log    factor     3.00000E-04  3.00000E-09  3.00000E-00      general   1.0000       0.0000       1
 p13          log    factor     3.00000E-04  3.00000E-09  3.00000E-00      general   1.0000       0.0000       1
 p14          log    factor     3.00000E-04  3.00000E-09  3.00000E-00      general   1.0000       0.0000       1
 p15          log    factor     3.00000E-04  3.00000E-09  3.00000E-00      general   1.0000       0.0000       1
 pobs3        log    factor     3.00000E-04  3.00000E-09  3.00000E-00      general   1.0000       0.0000       1
 pobs5        log    factor     3.00000E-04  3.00000E-09  3.00000E-00      general   1.0000       0.0000       1
 p18          log    factor     3.00000E-04  3.00000E-09  3.00000E-00      general   1.0000       0.0000       1
 p19          log    factor     3.00000E-04  3.00000E-09  3.00000E-00      general   1.0000       0.0000       1
 p20          log    factor     3.00000E-04  3.00000E-09  3.00000E-00      general   1.0000       0.0000       1
 p21          log    factor     3.00000E-04  3.00000E-09  3.00000E-00      general   1.0000       0.0000       1
 p22          log    factor     3.00000E-04  3.00000E-09  3.00000E-00      general   1.0000       0.0000       1
 p23          log    factor     3.00000E-04  3.00000E-09  3.00000E-00      general   1.0000       0.0000       1
 p24          log    factor     3.00000E-04  3.00000E-09  3.00000E-00      general   1.0000       0.0000       1
 p25          log    factor     3.00000E-04  3.00000E-09  3.00000E-00      general   1.0000       0.0000       1
 p26          log    factor     3.00000E-04  3.00000E-09  3.00000E-00      general   1.0000       0.0000       1
 p27          log    factor     3.00000E-04  3.00000E-09  3.00000E-00      general   1.0000       0.0000       1
 p28          log    factor     3.00000E-04  3.00000E-09  3.00000E-00      general   1.0000       0.0000       1
 p29          log    factor     3.00000E-04  3.00000E-09  3.00000E-00      general   1.0000       0.0000       1
 p30          log    factor     3.00000E-04  3.00000E-09  3.00000E-00      general   1.0000       0.0000       1
 p31          log    factor     3.00000E-04  3.00000E-09  3.00000E-00      general   1.0000       0.0000       1
 p32          log    factor     3.00000E-04  3.00000E-09  3.00000E-00      general   1.0000       0.0000       1
 p33          log    factor     3.00000E-04  3.00000E-09  3.00000E-00      general   1.0000       0.0000       1
 p34          log    factor     3.00000E-04  3.00000E-09  3.00000E-00      general   1.0000       0.0000       1
 p35          log    factor     3.00000E-04  3.00000E-09  3.00000E-00      general   1.0000       0.0000       1
 p36          log    factor     3.00000E-04  3.00000E-09  3.00000E-00      general   1.0000       0.0000       1
* observation groups
regulhk1
 head
 river
* observation data
 1.0            100.225       0.998752      head
 2.0            126.939       0.998752      head
 3.0            157.146       0.998752      head
 4.0            126.939       0.998752      head
 5.0            140.863       0.998752      head
 6.0            127.149       0.998752      head
 7.0            101.235       0.998752      head
 8.0            157.133       0.998752      head
 9.0            176.945       0.998752      head
 10.0           140.973       0.998752      head
 ss            -4.05404        2.50000      river
* model command line
 modrun1.bat >nul
* model input/output
 tc1-new.sen.tpl tc1-new.sen
 points.file.tpl points.file.new
 modobs.ins tc1._os
 precision.ins testPrecision.out
* prior information
r1  1.0 * log(p2) - 1.0 * log(pobs1) = 0.0   7.3304      regulhk1
r2  1.0 * log(p3) - 1.0 * log(pobs1) = 0.0   4.8675      regulhk1
r3  1.0 * log(p3) - 1.0 * log(p2) = 0.0   6.3319      regulhk1
r4  1.0 * log(p4) - 1.0 * log(pobs1) = 0.0   3.8907      regulhk1
r5  1.0 * log(p4) - 1.0 * log(p2) = 0.0   4.4930      regulhk1
r6  1.0 * log(p4) - 1.0 * log(p3) = 0.0   6.3319      regulhk1
r7  1.0 * log(p5) - 1.0 * log(pobs1) = 0.0   3.3491      regulhk1
r8  1.0 * log(p5) - 1.0 * log(p2) = 0.0   3.6901      regulhk1
r9  1.0 * log(p5) - 1.0 * log(p3) = 0.0   4.4930      regulhk1
r10  1.0 * log(p5) - 1.0 * log(p4) = 0.0   6.3319      regulhk1
r11  1.0 * log(p6) - 1.0 * log(pobs1) = 0.0   3.0010      regulhk1
r12  1.0 * log(p6) - 1.0 * log(p2) = 0.0   3.2225      regulhk1
r13  1.0 * log(p6) - 1.0 * log(p3) = 0.0   3.6901      regulhk1
r14  1.0 * log(p6) - 1.0 * log(p4) = 0.0   4.4930      regulhk1
r15  1.0 * log(p6) - 1.0 * log(p5) = 0.0   6.3319      regulhk1
r16  1.0 * log(p7) - 1.0 * log(pobs1) = 0.0   5.4067      regulhk1
r17  1.0 * log(p7) - 1.0 * log(p2) = 0.0   5.3306      regulhk1
r18  1.0 * log(p7) - 1.0 * log(p3) = 0.0   4.2542      regulhk1
r19  1.0 * log(p7) - 1.0 * log(p4) = 0.0   3.5985      regulhk1
r20  1.0 * log(p7) - 1.0 * log(p5) = 0.0   3.1779      regulhk1
r21  1.0 * log(p7) - 1.0 * log(p6) = 0.0   2.8891      regulhk1
r22  1.0 * log(pobs2) - 1.0 * log(pobs1) = 0.0   6.1681      regulhk1
r23  1.0 * log(pobs2) - 1.0 * log(p2) = 0.0   7.3304      regulhk1
r24  1.0 * log(pobs2) - 1.0 * log(p3) = 0.0   5.1934      regulhk1
r25  1.0 * log(pobs2) - 1.0 * log(p4) = 0.0   4.0879      regulhk1
r26  1.0 * log(pobs2) - 1.0 * log(p5) = 0.0   3.4771      regulhk1
r27  1.0 * log(pobs2) - 1.0 * log(p6) = 0.0   3.0900      regulhk1
r28  1.0 * log(pobs2) - 1.0 * log(p7) = 0.0   7.3304      regulhk1
r29  1.0 * log(p9) - 1.0 * log(pobs1) = 0.0   4.3521      regulhk1
r30  1.0 * log(p9) - 1.0 * log(p2) = 0.0   5.3306      regulhk1
r31  1.0 * log(p9) - 1.0 * log(p3) = 0.0   6.3319      regulhk1
r32  1.0 * log(p9) - 1.0 * log(p4) = 0.0   5.3306      regulhk1
r33  1.0 * log(p9) - 1.0 * log(p5) = 0.0   4.2542      regulhk1
r34  1.0 * log(p9) - 1.0 * log(p6) = 0.0   3.5985      regulhk1
r35  1.0 * log(p9) - 1.0 * log(p7) = 0.0   4.4930      regulhk1
r36  1.0 * log(p9) - 1.0 * log(pobs2) = 0.0   5.4067      regulhk1
r37  1.0 * log(p10) - 1.0 * log(pobs1) = 0.0   3.7011      regulhk1
r38  1.0 * log(p10) - 1.0 * log(p2) = 0.0   4.2542      regulhk1
r39  1.0 * log(p10) - 1.0 * log(p3) = 0.0   5.3306      regulhk1
r40  1.0 * log(p10) - 1.0 * log(p4) = 0.0   6.3319      regulhk1
r41  1.0 * log(p10) - 1.0 * log(p5) = 0.0   5.3306      regulhk1
r42  1.0 * log(p10) - 1.0 * log(p6) = 0.0   4.2542      regulhk1
r43  1.0 * log(p10) - 1.0 * log(p7) = 0.0   3.6901      regulhk1
r44  1.0 * log(p10) - 1.0 * log(pobs2) = 0.0   4.1463      regulhk1
r45  1.0 * log(p10) - 1.0 * log(p9) = 0.0   6.3319      regulhk1
r46  1.0 * log(pobs4) - 1.0 * log(pobs1) = 0.0   3.4388      regulhk1
r47  1.0 * log(pobs4) - 1.0 * log(p2) = 0.0   3.8485      regulhk1
r48  1.0 * log(pobs4) - 1.0 * log(p3) = 0.0   4.7382      regulhk1
r49  1.0 * log(pobs4) - 1.0 * log(p4) = 0.0   6.5203      regulhk1
r50  1.0 * log(pobs4) - 1.0 * log(p5) = 0.0   7.3304      regulhk1
r51  1.0 * log(pobs4) - 1.0 * log(p6) = 0.0   5.1934      regulhk1
r52  1.0 * log(pobs4) - 1.0 * log(p7) = 0.0   3.3491      regulhk1
r53  1.0 * log(pobs4) - 1.0 * log(pobs2) = 0.0   3.6901      regulhk1
r54  1.0 * log(pobs4) - 1.0 * log(p9) = 0.0   4.8675      regulhk1
r55  1.0 * log(pobs4) - 1.0 * log(p10) = 0.0   7.3304      regulhk1
r56  1.0 * log(p12) - 1.0 * log(pobs1) = 0.0   2.9524      regulhk1
r57  1.0 * log(p12) - 1.0 * log(p2) = 0.0   3.1779      regulhk1
r58  1.0 * log(p12) - 1.0 * log(p3) = 0.0   3.5985      regulhk1
r59  1.0 * log(p12) - 1.0 * log(p4) = 0.0   4.2542      regulhk1
r60  1.0 * log(p12) - 1.0 * log(p5) = 0.0   5.3306      regulhk1
r61  1.0 * log(p12) - 1.0 * log(p6) = 0.0   6.3319      regulhk1
r62  1.0 * log(p12) - 1.0 * log(p7) = 0.0   2.9140      regulhk1
r63  1.0 * log(p12) - 1.0 * log(pobs2) = 0.0   3.1023      regulhk1
r64  1.0 * log(p12) - 1.0 * log(p9) = 0.0   3.6901      regulhk1
r65  1.0 * log(p12) - 1.0 * log(p10) = 0.0   4.4930      regulhk1
r66  1.0 * log(p12) - 1.0 * log(pobs4) = 0.0   5.4067      regulhk1
r67  1.0 * log(p13) - 1.0 * log(pobs1) = 0.0   4.1463      regulhk1
r68  1.0 * log(p13) - 1.0 * log(p2) = 0.0   4.2542      regulhk1
r69  1.0 * log(p13) - 1.0 * log(p3) = 0.0   3.7959      regulhk1
r70  1.0 * log(p13) - 1.0 * log(p4) = 0.0   3.3820      regulhk1
r71  1.0 * log(p13) - 1.0 * log(p5) = 0.0   3.0624      regulhk1
r72  1.0 * log(p13) - 1.0 * log(p6) = 0.0   2.8218      regulhk1
r73  1.0 * log(p13) - 1.0 * log(p7) = 0.0   6.3319      regulhk1
r74  1.0 * log(p13) - 1.0 * log(pobs2) = 0.0   5.1934      regulhk1
r75  1.0 * log(p13) - 1.0 * log(p9) = 0.0   4.2542      regulhk1
r76  1.0 * log(p13) - 1.0 * log(p10) = 0.0   3.5985      regulhk1
r77  1.0 * log(p13) - 1.0 * log(pobs4) = 0.0   3.2599      regulhk1
r78  1.0 * log(p13) - 1.0 * log(p12) = 0.0   2.8891      regulhk1
r79  1.0 * log(p14) - 1.0 * log(pobs1) = 0.0   4.0879      regulhk1
r80  1.0 * log(p14) - 1.0 * log(p2) = 0.0   4.4930      regulhk1
r81  1.0 * log(p14) - 1.0 * log(p3) = 0.0   4.2542      regulhk1
r82  1.0 * log(p14) - 1.0 * log(p4) = 0.0   3.7959      regulhk1
r83  1.0 * log(p14) - 1.0 * log(p5) = 0.0   3.3820      regulhk1
r84  1.0 * log(p14) - 1.0 * log(p6) = 0.0   3.0624      regulhk1
r85  1.0 * log(p14) - 1.0 * log(p7) = 0.0   5.3306      regulhk1
r86  1.0 * log(p14) - 1.0 * log(pobs2) = 0.0   5.4067      regulhk1
r87  1.0 * log(p14) - 1.0 * log(p9) = 0.0   5.3306      regulhk1
r88  1.0 * log(p14) - 1.0 * log(p10) = 0.0   4.2542      regulhk1
r89  1.0 * log(p14) - 1.0 * log(pobs4) = 0.0   3.7011      regulhk1
r90  1.0 * log(p14) - 1.0 * log(p12) = 0.0   3.1779      regulhk1
r91  1.0 * log(p14) - 1.0 * log(p13) = 0.0   6.3319      regulhk1
r92  1.0 * log(p15) - 1.0 * log(pobs1) = 0.0   3.7710      regulhk1
r93  1.0 * log(p15) - 1.0 * log(p2) = 0.0   4.2542      regulhk1
r94  1.0 * log(p15) - 1.0 * log(p3) = 0.0   4.4930      regulhk1
r95  1.0 * log(p15) - 1.0 * log(p4) = 0.0   4.2542      regulhk1
r96  1.0 * log(p15) - 1.0 * log(p5) = 0.0   3.7959      regulhk1
r97  1.0 * log(p15) - 1.0 * log(p6) = 0.0   3.3820      regulhk1
r98  1.0 * log(p15) - 1.0 * log(p7) = 0.0   4.2542      regulhk1
r99  1.0 * log(p15) - 1.0 * log(pobs2) = 0.0   4.6249      regulhk1
r100  1.0 * log(p15) - 1.0 * log(p9) = 0.0   6.3319      regulhk1
r101  1.0 * log(p15) - 1.0 * log(p10) = 0.0   5.3306      regulhk1
r102  1.0 * log(p15) - 1.0 * log(pobs4) = 0.0   4.3521      regulhk1
r103  1.0 * log(p15) - 1.0 * log(p12) = 0.0   3.5985      regulhk1
r104  1.0 * log(p15) - 1.0 * log(p13) = 0.0   4.4930      regulhk1
r105  1.0 * log(p15) - 1.0 * log(p14) = 0.0   6.3319      regulhk1
r106  1.0 * log(pobs3) - 1.0 * log(pobs1) = 0.0   3.4098      regulhk1
r107  1.0 * log(pobs3) - 1.0 * log(p2) = 0.0   3.7710      regulhk1
r108  1.0 * log(pobs3) - 1.0 * log(p3) = 0.0   4.0879      regulhk1
r109  1.0 * log(pobs3) - 1.0 * log(p4) = 0.0   4.1463      regulhk1
r110  1.0 * log(pobs3) - 1.0 * log(p5) = 0.0   3.8907      regulhk1
r111  1.0 * log(pobs3) - 1.0 * log(p6) = 0.0   3.5264      regulhk1
r112  1.0 * log(pobs3) - 1.0 * log(p7) = 0.0   3.7011      regulhk1
r113  1.0 * log(pobs3) - 1.0 * log(pobs2) = 0.0   3.9509      regulhk1
r114  1.0 * log(pobs3) - 1.0 * log(p9) = 0.0   5.1934      regulhk1
r115  1.0 * log(pobs3) - 1.0 * log(p10) = 0.0   5.4067      regulhk1
r116  1.0 * log(pobs3) - 1.0 * log(pobs4) = 0.0   4.5565      regulhk1
r117  1.0 * log(pobs3) - 1.0 * log(p12) = 0.0   3.8907      regulhk1
r118  1.0 * log(pobs3) - 1.0 * log(p13) = 0.0   3.8907      regulhk1
r119  1.0 * log(pobs3) - 1.0 * log(p14) = 0.0   4.8675      regulhk1
r120  1.0 * log(pobs3) - 1.0 * log(p15) = 0.0   7.3304      regulhk1
r121  1.0 * log(pobs5) - 1.0 * log(pobs1) = 0.0   3.2123      regulhk1
r122  1.0 * log(pobs5) - 1.0 * log(p2) = 0.0   3.5350      regulhk1
r123  1.0 * log(pobs5) - 1.0 * log(p3) = 0.0   4.1069      regulhk1
r124  1.0 * log(pobs5) - 1.0 * log(p4) = 0.0   4.9148      regulhk1
r125  1.0 * log(pobs5) - 1.0 * log(p5) = 0.0   5.4885      regulhk1
r126  1.0 * log(pobs5) - 1.0 * log(p6) = 0.0   4.9148      regulhk1
r127  1.0 * log(pobs5) - 1.0 * log(p7) = 0.0   3.2174      regulhk1
r128  1.0 * log(pobs5) - 1.0 * log(pobs2) = 0.0   3.4771      regulhk1
r129  1.0 * log(pobs5) - 1.0 * log(p9) = 0.0   4.4629      regulhk1
r130  1.0 * log(pobs5) - 1.0 * log(p10) = 0.0   6.1681      regulhk1
r131  1.0 * log(pobs5) - 1.0 * log(pobs4) = 0.0   7.3304      regulhk1
r132  1.0 * log(pobs5) - 1.0 * log(p12) = 0.0   6.1681      regulhk1
r133  1.0 * log(pobs5) - 1.0 * log(p13) = 0.0   3.2022      regulhk1
r134  1.0 * log(pobs5) - 1.0 * log(p14) = 0.0   3.6478      regulhk1
r135  1.0 * log(pobs5) - 1.0 * log(p15) = 0.0   4.3785      regulhk1
r136  1.0 * log(pobs5) - 1.0 * log(pobs3) = 0.0   4.9148      regulhk1
r137  1.0 * log(p18) - 1.0 * log(pobs1) = 0.0   2.8604      regulhk1
r138  1.0 * log(p18) - 1.0 * log(p2) = 0.0   3.0624      regulhk1
r139  1.0 * log(p18) - 1.0 * log(p3) = 0.0   3.3820      regulhk1
r140  1.0 * log(p18) - 1.0 * log(p4) = 0.0   3.7959      regulhk1
r141  1.0 * log(p18) - 1.0 * log(p5) = 0.0   4.2542      regulhk1
r142  1.0 * log(p18) - 1.0 * log(p6) = 0.0   4.4930      regulhk1
r143  1.0 * log(p18) - 1.0 * log(p7) = 0.0   2.8891      regulhk1
r144  1.0 * log(p18) - 1.0 * log(pobs2) = 0.0   3.0436      regulhk1
r145  1.0 * log(p18) - 1.0 * log(p9) = 0.0   3.5985      regulhk1
r146  1.0 * log(p18) - 1.0 * log(p10) = 0.0   4.2542      regulhk1
r147  1.0 * log(p18) - 1.0 * log(pobs4) = 0.0   4.6249      regulhk1
r148  1.0 * log(p18) - 1.0 * log(p12) = 0.0   6.3319      regulhk1
r149  1.0 * log(p18) - 1.0 * log(p13) = 0.0   2.9140      regulhk1
r150  1.0 * log(p18) - 1.0 * log(p14) = 0.0   3.2225      regulhk1
r151  1.0 * log(p18) - 1.0 * log(p15) = 0.0   3.6901      regulhk1
r152  1.0 * log(p18) - 1.0 * log(pobs3) = 0.0   4.1463      regulhk1
r153  1.0 * log(p18) - 1.0 * log(pobs5) = 0.0   5.7787      regulhk1
r154  1.0 * log(p19) - 1.0 * log(pobs1) = 0.0   3.5013      regulhk1
r155  1.0 * log(p19) - 1.0 * log(p2) = 0.0   3.5985      regulhk1
r156  1.0 * log(p19) - 1.0 * log(p3) = 0.0   3.3820      regulhk1
r157  1.0 * log(p19) - 1.0 * log(p4) = 0.0   3.1366      regulhk1
r158  1.0 * log(p19) - 1.0 * log(p5) = 0.0   2.9140      regulhk1
r159  1.0 * log(p19) - 1.0 * log(p6) = 0.0   2.7287      regulhk1
r160  1.0 * log(p19) - 1.0 * log(p7) = 0.0   4.4930      regulhk1
r161  1.0 * log(p19) - 1.0 * log(pobs2) = 0.0   4.0879      regulhk1
r162  1.0 * log(p19) - 1.0 * log(p9) = 0.0   3.7959      regulhk1
r163  1.0 * log(p19) - 1.0 * log(p10) = 0.0   3.3820      regulhk1
r164  1.0 * log(p19) - 1.0 * log(pobs4) = 0.0   3.1023      regulhk1
r165  1.0 * log(p19) - 1.0 * log(p12) = 0.0   2.8218      regulhk1
r166  1.0 * log(p19) - 1.0 * log(p13) = 0.0   6.3319      regulhk1
r167  1.0 * log(p19) - 1.0 * log(p14) = 0.0   5.3306      regulhk1
r168  1.0 * log(p19) - 1.0 * log(p15) = 0.0   4.2542      regulhk1
r169  1.0 * log(p19) - 1.0 * log(pobs3) = 0.0   3.8485      regulhk1
r170  1.0 * log(p19) - 1.0 * log(pobs5) = 0.0   3.1065      regulhk1
r171  1.0 * log(p19) - 1.0 * log(p18) = 0.0   2.8891      regulhk1
r172  1.0 * log(p20) - 1.0 * log(pobs1) = 0.0   3.4771      regulhk1
r173  1.0 * log(p20) - 1.0 * log(p2) = 0.0   3.6901      regulhk1
r174  1.0 * log(p20) - 1.0 * log(p3) = 0.0   3.5985      regulhk1
r175  1.0 * log(p20) - 1.0 * log(p4) = 0.0   3.3820      regulhk1
r176  1.0 * log(p20) - 1.0 * log(p5) = 0.0   3.1366      regulhk1
r177  1.0 * log(p20) - 1.0 * log(p6) = 0.0   2.9140      regulhk1
r178  1.0 * log(p20) - 1.0 * log(p7) = 0.0   4.2542      regulhk1
r179  1.0 * log(p20) - 1.0 * log(pobs2) = 0.0   4.1463      regulhk1
r180  1.0 * log(p20) - 1.0 * log(p9) = 0.0   4.2542      regulhk1
r181  1.0 * log(p20) - 1.0 * log(p10) = 0.0   3.7959      regulhk1
r182  1.0 * log(p20) - 1.0 * log(pobs4) = 0.0   3.4098      regulhk1
r183  1.0 * log(p20) - 1.0 * log(p12) = 0.0   3.0624      regulhk1
r184  1.0 * log(p20) - 1.0 * log(p13) = 0.0   5.3306      regulhk1
r185  1.0 * log(p20) - 1.0 * log(p14) = 0.0   6.3319      regulhk1
r186  1.0 * log(p20) - 1.0 * log(p15) = 0.0   5.3306      regulhk1
r187  1.0 * log(p20) - 1.0 * log(pobs3) = 0.0   4.7382      regulhk1
r188  1.0 * log(p20) - 1.0 * log(pobs5) = 0.0   3.4615      regulhk1
r189  1.0 * log(p20) - 1.0 * log(p18) = 0.0   3.1779      regulhk1
r190  1.0 * log(p20) - 1.0 * log(p19) = 0.0   6.3319      regulhk1
r191  1.0 * log(p21) - 1.0 * log(pobs1) = 0.0   3.3301      regulhk1
r192  1.0 * log(p21) - 1.0 * log(p2) = 0.0   3.5985      regulhk1
r193  1.0 * log(p21) - 1.0 * log(p3) = 0.0   3.6901      regulhk1
r194  1.0 * log(p21) - 1.0 * log(p4) = 0.0   3.5985      regulhk1
r195  1.0 * log(p21) - 1.0 * log(p5) = 0.0   3.3820      regulhk1
r196  1.0 * log(p21) - 1.0 * log(p6) = 0.0   3.1366      regulhk1
r197  1.0 * log(p21) - 1.0 * log(p7) = 0.0   3.7959      regulhk1
r198  1.0 * log(p21) - 1.0 * log(pobs2) = 0.0   3.8907      regulhk1
r199  1.0 * log(p21) - 1.0 * log(p9) = 0.0   4.4930      regulhk1
r200  1.0 * log(p21) - 1.0 * log(p10) = 0.0   4.2542      regulhk1
r201  1.0 * log(p21) - 1.0 * log(pobs4) = 0.0   3.7710      regulhk1
r202  1.0 * log(p21) - 1.0 * log(p12) = 0.0   3.3820      regulhk1
r203  1.0 * log(p21) - 1.0 * log(p13) = 0.0   4.2542      regulhk1
r204  1.0 * log(p21) - 1.0 * log(p14) = 0.0   5.3306      regulhk1
r205  1.0 * log(p21) - 1.0 * log(p15) = 0.0   6.3319      regulhk1
r206  1.0 * log(p21) - 1.0 * log(pobs3) = 0.0   6.5203      regulhk1
r207  1.0 * log(p21) - 1.0 * log(pobs5) = 0.0   3.9509      regulhk1
r208  1.0 * log(p21) - 1.0 * log(p18) = 0.0   3.5985      regulhk1
r209  1.0 * log(p21) - 1.0 * log(p19) = 0.0   4.4930      regulhk1
r210  1.0 * log(p21) - 1.0 * log(p20) = 0.0   6.3319      regulhk1
r211  1.0 * log(p22) - 1.0 * log(pobs1) = 0.0   3.1278      regulhk1
r212  1.0 * log(p22) - 1.0 * log(p2) = 0.0   3.3820      regulhk1
r213  1.0 * log(p22) - 1.0 * log(p3) = 0.0   3.5985      regulhk1
r214  1.0 * log(p22) - 1.0 * log(p4) = 0.0   3.6901      regulhk1
r215  1.0 * log(p22) - 1.0 * log(p5) = 0.0   3.5985      regulhk1
r216  1.0 * log(p22) - 1.0 * log(p6) = 0.0   3.3820      regulhk1
r217  1.0 * log(p22) - 1.0 * log(p7) = 0.0   3.3820      regulhk1
r218  1.0 * log(p22) - 1.0 * log(pobs2) = 0.0   3.5264      regulhk1
r219  1.0 * log(p22) - 1.0 * log(p9) = 0.0   4.2542      regulhk1
r220  1.0 * log(p22) - 1.0 * log(p10) = 0.0   4.4930      regulhk1
r221  1.0 * log(p22) - 1.0 * log(pobs4) = 0.0   4.0879      regulhk1
r222  1.0 * log(p22) - 1.0 * log(p12) = 0.0   3.7959      regulhk1
r223  1.0 * log(p22) - 1.0 * log(p13) = 0.0   3.5985      regulhk1
r224  1.0 * log(p22) - 1.0 * log(p14) = 0.0   4.2542      regulhk1
r225  1.0 * log(p22) - 1.0 * log(p15) = 0.0   5.3306      regulhk1
r226  1.0 * log(p22) - 1.0 * log(pobs3) = 0.0   7.3304      regulhk1
r227  1.0 * log(p22) - 1.0 * log(pobs5) = 0.0   4.5565      regulhk1
r228  1.0 * log(p22) - 1.0 * log(p18) = 0.0   4.2542      regulhk1
r229  1.0 * log(p22) - 1.0 * log(p19) = 0.0   3.6901      regulhk1
r230  1.0 * log(p22) - 1.0 * log(p20) = 0.0   4.4930      regulhk1
r231  1.0 * log(p22) - 1.0 * log(p21) = 0.0   6.3319      regulhk1
r232  1.0 * log(p23) - 1.0 * log(pobs1) = 0.0   2.9255      regulhk1
r233  1.0 * log(p23) - 1.0 * log(p2) = 0.0   3.1366      regulhk1
r234  1.0 * log(p23) - 1.0 * log(p3) = 0.0   3.3820      regulhk1
r235  1.0 * log(p23) - 1.0 * log(p4) = 0.0   3.5985      regulhk1
r236  1.0 * log(p23) - 1.0 * log(p5) = 0.0   3.6901      regulhk1
r237  1.0 * log(p23) - 1.0 * log(p6) = 0.0   3.5985      regulhk1
r238  1.0 * log(p23) - 1.0 * log(p7) = 0.0   3.0624      regulhk1
r239  1.0 * log(p23) - 1.0 * log(pobs2) = 0.0   3.1973      regulhk1
r240  1.0 * log(p23) - 1.0 * log(p9) = 0.0   3.7959      regulhk1
r241  1.0 * log(p23) - 1.0 * log(p10) = 0.0   4.2542      regulhk1
r242  1.0 * log(p23) - 1.0 * log(pobs4) = 0.0   4.1463      regulhk1
r243  1.0 * log(p23) - 1.0 * log(p12) = 0.0   4.2542      regulhk1
r244  1.0 * log(p23) - 1.0 * log(p13) = 0.0   3.1779      regulhk1
r245  1.0 * log(p23) - 1.0 * log(p14) = 0.0   3.5985      regulhk1
r246  1.0 * log(p23) - 1.0 * log(p15) = 0.0   4.2542      regulhk1
r247  1.0 * log(p23) - 1.0 * log(pobs3) = 0.0   5.1934      regulhk1
r248  1.0 * log(p23) - 1.0 * log(pobs5) = 0.0   4.9148      regulhk1
r249  1.0 * log(p23) - 1.0 * log(p18) = 0.0   5.3306      regulhk1
r250  1.0 * log(p23) - 1.0 * log(p19) = 0.0   3.2225      regulhk1
r251  1.0 * log(p23) - 1.0 * log(p20) = 0.0   3.6901      regulhk1
r252  1.0 * log(p23) - 1.0 * log(p21) = 0.0   4.4930      regulhk1
r253  1.0 * log(p23) - 1.0 * log(p22) = 0.0   6.3319      regulhk1
r254  1.0 * log(p24) - 1.0 * log(pobs1) = 0.0   2.7477      regulhk1
r255  1.0 * log(p24) - 1.0 * log(p2) = 0.0   2.9140      regulhk1
r256  1.0 * log(p24) - 1.0 * log(p3) = 0.0   3.1366      regulhk1
r257  1.0 * log(p24) - 1.0 * log(p4) = 0.0   3.3820      regulhk1
r258  1.0 * log(p24) - 1.0 * log(p5) = 0.0   3.5985      regulhk1
r259  1.0 * log(p24) - 1.0 * log(p6) = 0.0   3.6901      regulhk1
r260  1.0 * log(p24) - 1.0 * log(p7) = 0.0   2.8218      regulhk1
r261  1.0 * log(p24) - 1.0 * log(pobs2) = 0.0   2.9343      regulhk1
r262  1.0 * log(p24) - 1.0 * log(p9) = 0.0   3.3820      regulhk1
r263  1.0 * log(p24) - 1.0 * log(p10) = 0.0   3.7959      regulhk1
r264  1.0 * log(p24) - 1.0 * log(pobs4) = 0.0   3.8907      regulhk1
r265  1.0 * log(p24) - 1.0 * log(p12) = 0.0   4.4930      regulhk1
r266  1.0 * log(p24) - 1.0 * log(p13) = 0.0   2.8891      regulhk1
r267  1.0 * log(p24) - 1.0 * log(p14) = 0.0   3.1779      regulhk1
r268  1.0 * log(p24) - 1.0 * log(p15) = 0.0   3.5985      regulhk1
r269  1.0 * log(p24) - 1.0 * log(pobs3) = 0.0   4.0879      regulhk1
r270  1.0 * log(p24) - 1.0 * log(pobs5) = 0.0   4.5565      regulhk1
r271  1.0 * log(p24) - 1.0 * log(p18) = 0.0   6.3319      regulhk1
r272  1.0 * log(p24) - 1.0 * log(p19) = 0.0   2.9140      regulhk1
r273  1.0 * log(p24) - 1.0 * log(p20) = 0.0   3.2225      regulhk1
r274  1.0 * log(p24) - 1.0 * log(p21) = 0.0   3.6901      regulhk1
r275  1.0 * log(p24) - 1.0 * log(p22) = 0.0   4.4930      regulhk1
r276  1.0 * log(p24) - 1.0 * log(p23) = 0.0   6.3319      regulhk1
r277  1.0 * log(p25) - 1.0 * log(pobs1) = 0.0   3.1023      regulhk1
r278  1.0 * log(p25) - 1.0 * log(p2) = 0.0   3.1779      regulhk1
r279  1.0 * log(p25) - 1.0 * log(p3) = 0.0   3.0624      regulhk1
r280  1.0 * log(p25) - 1.0 * log(p4) = 0.0   2.9140      regulhk1
r281  1.0 * log(p25) - 1.0 * log(p5) = 0.0   2.7635      regulhk1
r282  1.0 * log(p25) - 1.0 * log(p6) = 0.0   2.6272      regulhk1
r283  1.0 * log(p25) - 1.0 * log(p7) = 0.0   3.6901      regulhk1
r284  1.0 * log(p25) - 1.0 * log(pobs2) = 0.0   3.4771      regulhk1
r285  1.0 * log(p25) - 1.0 * log(p9) = 0.0   3.3820      regulhk1
r286  1.0 * log(p25) - 1.0 * log(p10) = 0.0   3.1366      regulhk1
r287  1.0 * log(p25) - 1.0 * log(pobs4) = 0.0   2.9255      regulhk1
r288  1.0 * log(p25) - 1.0 * log(p12) = 0.0   2.7287      regulhk1
r289  1.0 * log(p25) - 1.0 * log(p13) = 0.0   4.4930      regulhk1
r290  1.0 * log(p25) - 1.0 * log(p14) = 0.0   4.2542      regulhk1
r291  1.0 * log(p25) - 1.0 * log(p15) = 0.0   3.7959      regulhk1
r292  1.0 * log(p25) - 1.0 * log(pobs3) = 0.0   3.6080      regulhk1
r293  1.0 * log(p25) - 1.0 * log(pobs5) = 0.0   2.9649      regulhk1
r294  1.0 * log(p25) - 1.0 * log(p18) = 0.0   2.8218      regulhk1
r295  1.0 * log(p25) - 1.0 * log(p19) = 0.0   6.3319      regulhk1
r296  1.0 * log(p25) - 1.0 * log(p20) = 0.0   5.3306      regulhk1
r297  1.0 * log(p25) - 1.0 * log(p21) = 0.0   4.2542      regulhk1
r298  1.0 * log(p25) - 1.0 * log(p22) = 0.0   3.5985      regulhk1
r299  1.0 * log(p25) - 1.0 * log(p23) = 0.0   3.1779      regulhk1
r300  1.0 * log(p25) - 1.0 * log(p24) = 0.0   2.8891      regulhk1
r301  1.0 * log(p26) - 1.0 * log(pobs1) = 0.0   3.0900      regulhk1
r302  1.0 * log(p26) - 1.0 * log(p2) = 0.0   3.2225      regulhk1
r303  1.0 * log(p26) - 1.0 * log(p3) = 0.0   3.1779      regulhk1
r304  1.0 * log(p26) - 1.0 * log(p4) = 0.0   3.0624      regulhk1
r305  1.0 * log(p26) - 1.0 * log(p5) = 0.0   2.9140      regulhk1
r306  1.0 * log(p26) - 1.0 * log(p6) = 0.0   2.7635      regulhk1
r307  1.0 * log(p26) - 1.0 * log(p7) = 0.0   3.5985      regulhk1
r308  1.0 * log(p26) - 1.0 * log(pobs2) = 0.0   3.5013      regulhk1
r309  1.0 * log(p26) - 1.0 * log(p9) = 0.0   3.5985      regulhk1
r310  1.0 * log(p26) - 1.0 * log(p10) = 0.0   3.3820      regulhk1
r311  1.0 * log(p26) - 1.0 * log(pobs4) = 0.0   3.1278      regulhk1
r312  1.0 * log(p26) - 1.0 * log(p12) = 0.0   2.9140      regulhk1
r313  1.0 * log(p26) - 1.0 * log(p13) = 0.0   4.2542      regulhk1
r314  1.0 * log(p26) - 1.0 * log(p14) = 0.0   4.4930      regulhk1
r315  1.0 * log(p26) - 1.0 * log(p15) = 0.0   4.2542      regulhk1
r316  1.0 * log(p26) - 1.0 * log(pobs3) = 0.0   4.1463      regulhk1
r317  1.0 * log(p26) - 1.0 * log(pobs5) = 0.0   3.2174      regulhk1
r318  1.0 * log(p26) - 1.0 * log(p18) = 0.0   3.0624      regulhk1
r319  1.0 * log(p26) - 1.0 * log(p19) = 0.0   5.3306      regulhk1
r320  1.0 * log(p26) - 1.0 * log(p20) = 0.0   6.3319      regulhk1
r321  1.0 * log(p26) - 1.0 * log(p21) = 0.0   5.3306      regulhk1
r322  1.0 * log(p26) - 1.0 * log(p22) = 0.0   4.2542      regulhk1
r323  1.0 * log(p26) - 1.0 * log(p23) = 0.0   3.5985      regulhk1
r324  1.0 * log(p26) - 1.0 * log(p24) = 0.0   3.1779      regulhk1
r325  1.0 * log(p26) - 1.0 * log(p25) = 0.0   6.3319      regulhk1
r326  1.0 * log(p27) - 1.0 * log(pobs1) = 0.0   3.0113      regulhk1
r327  1.0 * log(p27) - 1.0 * log(p2) = 0.0   3.1779      regulhk1
r328  1.0 * log(p27) - 1.0 * log(p3) = 0.0   3.2225      regulhk1
r329  1.0 * log(p27) - 1.0 * log(p4) = 0.0   3.1779      regulhk1
r330  1.0 * log(p27) - 1.0 * log(p5) = 0.0   3.0624      regulhk1
r331  1.0 * log(p27) - 1.0 * log(p6) = 0.0   2.9140      regulhk1
r332  1.0 * log(p27) - 1.0 * log(p7) = 0.0   3.3820      regulhk1
r333  1.0 * log(p27) - 1.0 * log(pobs2) = 0.0   3.3889      regulhk1
r334  1.0 * log(p27) - 1.0 * log(p9) = 0.0   3.6901      regulhk1
r335  1.0 * log(p27) - 1.0 * log(p10) = 0.0   3.5985      regulhk1
r336  1.0 * log(p27) - 1.0 * log(pobs4) = 0.0   3.3301      regulhk1
r337  1.0 * log(p27) - 1.0 * log(p12) = 0.0   3.1366      regulhk1
r338  1.0 * log(p27) - 1.0 * log(p13) = 0.0   3.7959      regulhk1
r339  1.0 * log(p27) - 1.0 * log(p14) = 0.0   4.2542      regulhk1
r340  1.0 * log(p27) - 1.0 * log(p15) = 0.0   4.4930      regulhk1
r341  1.0 * log(p27) - 1.0 * log(pobs3) = 0.0   4.7382      regulhk1
r342  1.0 * log(p27) - 1.0 * log(pobs5) = 0.0   3.5095      regulhk1
r343  1.0 * log(p27) - 1.0 * log(p18) = 0.0   3.3820      regulhk1
r344  1.0 * log(p27) - 1.0 * log(p19) = 0.0   4.2542      regulhk1
r345  1.0 * log(p27) - 1.0 * log(p20) = 0.0   5.3306      regulhk1
r346  1.0 * log(p27) - 1.0 * log(p21) = 0.0   6.3319      regulhk1
r347  1.0 * log(p27) - 1.0 * log(p22) = 0.0   5.3306      regulhk1
r348  1.0 * log(p27) - 1.0 * log(p23) = 0.0   4.2542      regulhk1
r349  1.0 * log(p27) - 1.0 * log(p24) = 0.0   3.5985      regulhk1
r350  1.0 * log(p27) - 1.0 * log(p25) = 0.0   4.4930      regulhk1
r351  1.0 * log(p27) - 1.0 * log(p26) = 0.0   6.3319      regulhk1
r352  1.0 * log(p28) - 1.0 * log(pobs1) = 0.0   2.8918      regulhk1