pcf
* control data
 restart regularisation
     534    4280       2    5848      10
8  1  single  point  1  0  0
2.000000e+001  -3.000000e+000  3.000000e-001  1.000000e-002  7 999 lamforgive
1.000000e+001  1.000000e+001  1.000000e-003
1.000000e-001 1 noaui
25  1.000000e-002  3  3  1.000000e-002  3
0  0  0   PARSAVEITN
* singular value decomposition
  1
  534  5.000000e-007
  1
* parameter groups
Kp     relative   1.000000e-002  0.000000e+000  switch  2.000000e+000  parabolic
Kz     relative   1.000000e-002  0.000000e+000  switch  2.000000e+000  parabolic
* parameter data
KpKpx_TC2  log  factor  10.100000  10.000000  500.000000  Kp  1.0  0.0  1
KpKpx_TC3  log  factor  10.100000  10.000000  500.000000  Kp  1.0  0.0  1
KpKpx_TC4  log  factor  10.100000  10.000000  500.000000  Kp  1.0  0.0  1
KpKpx_TC7  log  factor  10.100000  10.000000  500.000000  Kp  1.0  0.0  1
KpKpx_TC8  log  factor  10.100000  10.000000  500.000000  Kp  1.0  0.0  1
KpKpx_TC9  log  factor  10.100000  10.000000  500.000000  Kp  1.0  0.0  1
KpKpx_TC10  log  factor  10.100000  10.000000  500.000000  Kp  1.0  0.0  1
KpKpx_TC11  log  factor  10.100000  10.000000  500.000000  Kp  1.0  0.0  1
KpKpx_TC12  log  factor  10.100000  10.000000  500.000000  Kp  1.0  0.0  1
KpKpx_TC13  log  factor  10.100000  10.000000  500.000000  Kp  1.0  0.0  1
KpKpx_TC14  log  factor  10.100000  10.000000  500.000000  Kp  1.0  0.0  1
KpKpx_TC15  log  factor  10.100000  10.000000  500.000000  Kp  1.0  0.0  1
KpKpx_TC16  log  factor  10.100000  10.000000  500.000000  Kp  1.0  0.0  1
KpKpx_TC17  log  factor  10.100000  10.000000  500.000000  Kp  1.0  0.0  1
KpKpx_TC18  log  factor  10.100000  10.000000  500.000000  Kp  1.0  0.0  1
KpKpx_TC19  log  factor  10.100000  10.000000  500.000000  Kp  1.0  0.0  1
KpKpx_TC20  log  factor  10.100000  10.000000  500.000000  Kp  1.0  0.0  1
KpKpx_TC21  log  factor  10.100000  10.000000  500.000000  Kp  1.0  0.0  1
KpKpx_TC22  log  factor  10.100000  10.000000  500.000000  Kp  1.0  0.0  1
KpKpx_TC23  log  factor  10.100000  10.000000  500.000000  Kp  1.0  0.0  1
KpKpx_TC24  log  factor  10.100000  10.000000  500.000000  Kp  1.0  0.0  1
KpKpx_TC25  log  factor  10.100000  10.000000  500.000000  Kp  1.0  0.0  1
KpKpx_TC27  log  factor  10.100000  10.000000  500.000000  Kp  1.0  0.0  1
KpKpx_TC28  log  factor  10.100000  10.000000  500.000000  Kp  1.0  0.0  1
KpKpx_TC29  log  factor  10.100000  10.000000  500.000000  Kp  1.0  0.0  1
KpKpx_TC30  log  factor  10.100000  10.000000  500.000000  Kp  1.0  0.0  1
KpKpx_TC31  log  factor  10.100000  10.000000  500.000000  Kp  1.0  0.0  1
KpKpx_TC32  log  factor  10.100000  10.000000  500.000000  Kp  1.0  0.0  1
KpKpx_TC33  log  factor  10.100000  10.000000  500.000000  Kp  1.0  0.0  1
KpKpx_TC34  log  factor  10.100000  10.000000  500.000000  Kp  1.0  0.0  1
KpKpx_TC35  log  factor  10.100000  10.000000  500.000000  Kp  1.0  0.0  1
KpKpx_TC36  log  factor  10.100000  10.000000  500.000000  Kp  1.0  0.0  1
KpKpx_TC37  log  factor  10.100000  10.000000  500.000000  Kp  1.0  0.0  1
KpKpx_TC38  log  factor  10.100000  10.000000  500.000000  Kp  1.0  0.0  1
KpKpx_TC39  log  factor  10.100000  10.000000  500.000000  Kp  1.0  0.0  1
KpKpx_TC40  log  factor  10.100000  10.000000  500.000000  Kp  1.0  0.0  1
KpKpx_TC41  log  factor  10.100000  10.000000  500.000000  Kp  1.0  0.0  1
KpKpx_TC42  log  factor  10.100000  10.000000  500.000000  Kp  1.0  0.0  1
KpKpx_TC43  log  factor  10.100000  10.000000  500.000000  Kp  1.0  0.0  1
KpKpx_TC44  log  factor  10.100000  10.000000  500.000000  Kp  1.0  0.0  1
KpKpx_TC45  log  factor  10.100000  10.000000  500.000000  Kp  1.0  0.0  1
KpKpx_TC46  log  factor  10.100000  10.000000  500.000000  Kp  1.0  0.0  1
KpKpx_TC47  log  factor  10.100000  10.000000  500.000000  Kp  1.0  0.0  1
KpKpx_TC48  log  factor  10.100000  10.000000  500.000000  Kp  1.0  0.0  1
KpKpx_TC49  log  factor  10.100000  10.000000  500.000000  Kp  1.0  0.0  1
KpKpx_TC50  log  factor  10.100000  10.000000  500.000000  Kp  1.0  0.0  1
KpKpx_TC52  log  factor  10.100000  10.000000  500.000000  Kp  1.0  0.0  1
KpKpx_TC53  log  factor  10.100000  10.000000  500.000000  Kp  1.0  0.0  1
KpKpx_TC54  log  factor  10.100000  10.000000  500.000000  Kp  1.0  0.0  1
KpKpx_TC55  log  factor  10.100000  10.000000  500.000000  Kp  1.0  0.0  1
KpKpx_TC56  log  factor  10.100000  10.000000  500.000000  Kp  1.0  0.0  1
KpKpx_TC57  log  factor  10.100000  10.000000  500.000000  Kp  1.0  0.0  1
KpKpx_TC58  log  factor  10.100000  10.000000  500.000000  Kp  1.0  0.0  1
KpKpx_TC59  log  factor  10.100000  10.000000  500.000000  Kp  1.0  0.0  1
KpKpx_EC1  log  factor  10.100000  10.000000  500.000000  Kp  1.0  0.0  1
KpKpx_EC2  log  factor  10.100000  10.000000  500.000000  Kp  1.0  0.0  1
KpKpx_EC4  log  factor  10.100000  10.000000  500.000000  Kp  1.0  0.0  1
KpKpx_EC5  log  factor  10.100000  10.000000  500.000000  Kp  1.0  0.0  1
KpKpx_EC7  log  factor  10.100000  10.000000  500.000000  Kp  1.0  0.0  1
KpKpx_EC8  log  factor  10.100000  10.000000  500.000000  Kp  1.0  0.0  1
KpKpx_EC9  log  factor  10.100000  10.000000  500.000000  Kp  1.0  0.0  1
KpKpx_EC10  log  factor  10.100000  10.000000  500.000000  Kp  1.0  0.0  1
KpKpx_EC11  log  factor  10.100000  10.000000  500.000000  Kp  1.0  0.0  1
KpKpx_EC13  log  factor  10.100000  10.000000  500.000000  Kp  1.0  0.0  1
KpKpx_EC14  log  factor  10.100000  10.000000  500.000000  Kp  1.0  0.0  1
KpKpx_EC15  log  factor  10.100000  10.000000  500.000000  Kp  1.0  0.0  1
KpKpx_EC16  log  factor  10.100000  10.000000  500.000000  Kp  1.0  0.0  1
KpKpx_EC17  log  factor  10.100000  10.000000  500.000000  Kp  1.0  0.0  1
KpKpx_EC18  log  factor  10.100000  10.000000  500.000000  Kp  1.0  0.0  1
KpKpx_Ww1  log  factor  10.100000  10.000000  500.000000  Kp  1.0  0.0  1
KpKpx_Ww2  log  factor  10.100000  10.000000  500.000000  Kp  1.0  0.0  1
KpKpx_Ww3  log  factor  10.100000  10.000000  500.000000  Kp  1.0  0.0  1
KpKpx_Ww4  log  factor  10.100000  10.000000  500.000000  Kp  1.0  0.0  1
KpKpx_Ww5  log  factor  10.100000  10.000000  500.000000  Kp  1.0  0.0  1
KpKpx_Ww6  log  factor  10.100000  10.000000  500.000000  Kp  1.0  0.0  1
KpKpx_Ww7  log  factor  10.100000  10.000000  500.000000  Kp  1.0  0.0  1
KpKpx_Ww8  log  factor  10.100000  10.000000  500.000000  Kp  1.0  0.0  1
KpKpx_Ww9  log  factor  10.100000  10.000000  500.000000  Kp  1.0  0.0  1
KpKpx_Ww10  log  factor  10.100000  10.000000  500.000000  Kp  1.0  0.0  1
KpKpx_Ww11  log  factor  10.100000  10.000000  500.000000  Kp  1.0  0.0  1
KpKpx_Ww12  log  factor  10.100000  10.000000  500.000000  Kp  1.0  0.0  1
KpKpx_Ww13  log  factor  10.100000  10.000000  500.000000  Kp  1.0  0.0  1
KpKpx_Ww14  log  factor  10.100000  10.000000  500.000000  Kp  1.0  0.0  1
KpKpx_Ww15  log  factor  10.100000  10.000000  500.000000  Kp  1.0  0.0  1
KpKpx_Ww16  log  factor  10.100000  10.000000  500.000000  Kp  1.0  0.0  1
KpKpx_Ww17  log  factor  10.100000  10.000000  500.000000  Kp  1.0  0.0  1
KpKpx_Ww18  log  factor  10.100000  10.000000  500.000000  Kp  1.0  0.0  1
KpKpx_Ww19  log  factor  10.100000  10.000000  500.000000  Kp  1.0  0.0  1
KpKpx_Ww20  log  factor  10.100000  10.000000  500.000000  Kp  1.0  0.0  1
KpKpx_Ww21  log  factor  10.100000  10.000000  500.000000  Kp  1.0  0.0  1
KpKpx_Ww22  log  factor  10.100000  10.000000  500.000000  Kp  1.0  0.0  1
KpKpx_Ww23  log  factor  10.100000  10.000000  500.000000  Kp  1.0  0.0  1
KpKpx_Ww24  log  factor  10.100000  10.000000  500.000000  Kp  1.0  0.0  1
KpKpx_Ww25  log  factor  10.100000  10.000000  500.000000  Kp  1.0  0.0  1
KpKpx_Ww26  log  factor  10.100000  10.000000  500.000000  Kp  1.0  0.0  1
KpKpx_Ww27  log  factor  10.100000  10.000000  500.000000  Kp  1.0  0.0  1
KpKpx_Ww28  log  factor  10.100000  10.000000  500.000000  Kp  1.0  0.0  1
KpKpx_Ww29  log  factor  10.100000  10.000000  500.000000  Kp  1.0  0.0  1
KpKpx_Ww30  log  factor  10.100000  10.000000  500.000000  Kp  1.0  0.0  1
KpKpx_Ww31  log  factor  10.100000  10.000000  500.000000  Kp  1.0  0.0  1
KpKpx_Ww32  log  factor  10.100000  10.000000  500.000000  Kp  1.0  0.0  1
KpKpx_Ww33  log  factor  10.100000  10.000000  500.000000  Kp  1.0  0.0  1
KpKpx_Ww34  log  factor  10.100000  10.000000  500.000000  Kp  1.0  0.0  1
KpKpx_Ww35  log  factor  10.100000  10.000000  500.000000  Kp  1.0  0.0  1
KpKpx_Ww36  log  factor  10.100000  10.000000  500.000000  Kp  1.0  0.0  1
KpKpx_Ww37  log  factor  10.100000  10.000000  500.000000  Kp  1.0  0.0  1
KpKpx_Ww38  log  factor  10.100000  10.000000  500.000000  Kp  1.0  0.0  1
KpKpx_Ww39  log  factor  10.100000  10.000000  500.000000  Kp  1.0  0.0  1
KpKpx_Ww40  log  factor  10.100000  10.000000  500.000000  Kp  1.0  0.0  1
KpKpx_Ww41  log  factor  10.100000  10.000000  500.000000  Kp  1.0  0.0  1
KpKpx_Ww42  log  factor  10.100000  10.000000  500.000000  Kp  1.0  0.0  1
KpKpx_Ww43  log  factor  10.100000  10.000000  500.000000  Kp  1.0  0.0  1
KpKpx_Ww44  log  factor  10.100000  10.000000  500.000000  Kp  1.0  0.0  1
KpKpx_Ww45  log  factor  10.100000  10.000000  500.000000  Kp  1.0  0.0  1
KpKpx_Ww46  log  factor  10.100000  10.000000  500.000000  Kp  1.0  0.0  1
KpKpx_Ww47  log  factor  10.100000  10.000000  500.000000  Kp  1.0  0.0  1
KpKpx_Ww48  log  factor  10.100000  10.000000  500.000000  Kp  1.0  0.0  1
KpKpx_Ww49  log  factor  10.100000  10.000000  500.000000  Kp  1.0  0.0  1
KpKpx_Ww50  log  factor  10.100000  10.000000  500.000000  Kp  1.0  0.0  1
KpKpx_Ww51  log  factor  10.100000  10.000000  500.000000  Kp  1.0  0.0  1
KpKpx_Ww52  log  factor  10.100000  10.000000  500.000000  Kp  1.0  0.0  1
KpKpx_Ww53  log  factor  10.100000  10.000000  500.000000  Kp  1.0  0.0  1
KpKpx_Ww54  log  factor  10.100000  10.000000  500.000000  Kp  1.0  0.0  1
KpKpx_Ww55  log  factor  10.100000  10.000000  500.000000  Kp  1.0  0.0  1
KpKpx_Ww56  log  factor  10.100000  10.000000  500.000000  Kp  1.0  0.0  1
KpKpx_Ww57  log  factor  10.100000  10.000000  500.000000  Kp  1.0  0.0  1
KpKpx_Ww58  log  factor  10.100000  10.000000  500.000000  Kp  1.0  0.0  1
KpKpx_Ww59  log  factor  10.100000  10.000000  500.000000  Kp  1.0  0.0  1
KpKpx_Ww60  log  factor  10.100000  10.000000  500.000000  Kp  1.0  0.0  1
KpKpx_Ww61  log  factor  10.100000  10.000000  500.000000  Kp  1.0  0.0  1
KpKpx_Ww62  log  factor  10.100000  10.000000  500.000000  Kp  1.0  0.0  1
KpKpx_Ww63  log  factor  10.100000  10.000000  500.000000  Kp  1.0  0.0  1
KpKpx_Ww64  log  factor  10.100000  10.000000  500.000000  Kp  1.0  0.0  1
KpKpx_Ww65  log  factor  10.100000  10.000000  500.000000  Kp  1.0  0.0  1
KpKpx_Ww66  log  factor  10.100000  10.000000  500.000000  Kp  1.0  0.0  1
KpKpx_Ww67  log  factor  10.100000  10.000000  500.000000  Kp  1.0  0.0  1
KpKpx_Ww68  log  factor  10.100000  10.000000  500.000000  Kp  1.0  0.0  1
KpKpx_Ww69  log  factor  10.100000  10.000000  500.000000  Kp  1.0  0.0  1
KpKpx_Ww70  log  factor  10.100000  10.000000  500.000000  Kp  1.0  0.0  1
KpKpx_Ww71  log  factor  10.100000  10.000000  500.000000  Kp  1.0  0.0  1
KpKpx_Ww72  log  factor  10.100000  10.000000  500.000000  Kp  1.0  0.0  1
KpKpx_Ww73  log  factor  10.100000  10.000000  500.000000  Kp  1.0  0.0  1
KpKpx_Ww74  log  factor  10.100000  10.000000  500.000000  Kp  1.0  0.0  1
KpKpx_Ww75  log  factor  10.100000  10.000000  500.000000  Kp  1.0  0.0  1
KpKpx_Ww76  log  factor  10.100000  10.000000  500.000000  Kp  1.0  0.0  1
KpKpx_Ww77  log  factor  10.100000  10.000000  500.000000  Kp  1.0  0.0  1
KpKpx_Ww78  log  factor  10.100000  10.000000  500.000000  Kp  1.0  0.0  1
KpKpx_Ww79  log  factor  10.100000  10.000000  500.000000  Kp  1.0  0.0  1
KpKpx_Ww80  log  factor  10.100000  10.000000  500.000000  Kp  1.0  0.0  1
KpKpx_Ww81  log  factor  10.100000  10.000000  500.000000  Kp  1.0  0.0  1
KpKpx_Ww82  log  factor  10.100000  10.000000  500.000000  Kp  1.0  0.0  1
KpKpx_Ww83  log  factor  10.100000  10.000000  500.000000  Kp  1.0  0.0  1
KpKpx_Ww84  log  factor  10.100000  10.000000  500.000000  Kp  1.0  0.0  1
KpKpx_Ww85  log  factor  10.100000  10.000000  500.000000  Kp  1.0  0.0  1
KpKpx_Ww86  log  factor  10.100000  10.000000  500.000000  Kp  1.0  0.0  1
KpKpx_Ww87  log  factor  10.100000  10.000000  500.000000  Kp  1.0  0.0  1
KpKpx_Ww88  log  factor  10.100000  10.000000  500.000000  Kp  1.0  0.0  1
KpKpx_Ww89  log  factor  10.100000  10.000000  500.000000  Kp  1.0  0.0  1
KpKpx_Ww90  log  factor  10.100000  10.000000  500.000000  Kp  1.0  0.0  1
KpKpx_Ww91  log  factor  10.100000  10.000000  500.000000  Kp  1.0  0.0  1
KpKpx_Ww92  log  factor  10.100000  10.000000  500.000000  Kp  1.0  0.0  1
KpKpx_Ww93  log  factor  10.100000  10.000000  500.000000  Kp  1.0  0.0  1
KpKpx_Ww94  log  factor  10.100000  10.000000  500.000000  Kp  1.0  0.0  1
KpKpx_Ww95  log  factor  10.100000  10.000000  500.000000  Kp  1.0  0.0  1
KpKpx_Ww96  log  factor  10.100000  10.000000  500.000000  Kp  1.0  0.0  1
KpKpx_Ww97  log  factor  10.100000  10.000000  500.000000  Kp  1.0  0.0  1
KpKpx_Ww98  log  factor  10.100000  10.000000  500.000000  Kp  1.0  0.0  1
KpKpx_Ww99  log  factor  10.100000  10.000000  500.000000  Kp  1.0  0.0  1
KpKpx_MS1  log  factor  10.100000  10.000000  500.000000  Kp  1.0  0.0  1
KpKpx_MS2  log  factor  10.100000  10.000000  500.000000  Kp  1.0  0.0  1
KpKpx_MS3  log  factor  10.100000  10.000000  500.000000  Kp  1.0  0.0  1
KpKpx_MS4  log  factor  10.100000  10.000000  500.000000  Kp  1.0  0.0  1
KpKpx_MS5  log  factor  10.100000  10.000000  500.000000  Kp  1.0  0.0  1
KpKpx_MS6  log  factor  10.100000  10.000000  500.000000  Kp  1.0  0.0  1
KpKpx_MS7  log  factor  10.100000  10.000000  500.000000  Kp  1.0  0.0  1
KpKpx_MS8  log  factor  10.100000  10.000000  500.000000  Kp  1.0  0.0  1
KpKpx_MS9  log  factor  10.100000  10.000000  500.000000  Kp  1.0  0.0  1
KpKpx_MS10  log  factor  10.100000  10.000000  500.000000  Kp  1.0  0.0  1
KpKpx_MS11  log  factor  10.100000  10.000000  500.000000  Kp  1.0  0.0  1
KpKpx_MS12  log  factor  10.100000  10.000000  500.000000  Kp  1.0  0.0  1
KpKpx_MS13  log  factor  10.100000  10.000000  500.000000  Kp  1.0  0.0  1
KpKpx_MS14  log  factor  10.100000  10.000000  500.000000  Kp  1.0  0.0  1
KpKpx_MS15  log  factor  10.100000  10.000000  500.000000  Kp  1.0  0.0  1
KpKpx_MS16  log  factor  10.100000  10.000000  500.000000  Kp  1.0  0.0  1
KpKpx_MS17  log  factor  10.100000  10.000000  500.000000  Kp  1.0  0.0  1
KpKpx_MS18  log  factor  10.100000  10.000000  500.000000  Kp  1.0  0.0  1
KpKpx_MS19  log  factor  10.100000  10.000000  500.000000  Kp  1.0  0.0  1
KpKpx_MS20  log  factor  10.100000  10.000000  500.000000  Kp  1.0  0.0  1
KpKpx_MS21  log  factor  10.100000  10.000000  500.000000  Kp  1.0  0.0  1
KpKpx_MS22  log  factor  10.100000  10.000000  500.000000  Kp  1.0  0.0  1
KpKpx_MS23  log  factor  10.100000  10.000000  500.000000  Kp  1.0  0.0  1
KpKpx_MS24  log  factor  10.100000  10.000000  500.000000  Kp  1.0  0.0  1
KpKpx_MS25  log  factor  10.100000  10.000000  500.000000  Kp  1.0  0.0  1
KpKpx_MS26  log  factor  10.100000  10.000000  500.000000  Kp  1.0  0.0  1
KpKpx_MS27  log  factor  10.100000  10.000000  500.000000  Kp  1.0  0.0  1
KpKpx_MS28  log  factor  10.100000  10.000000  500.000000  Kp  1.0  0.0  1
KpKpx_MS29  log  factor  10.100000  10.000000  500.000000  Kp  1.0  0.0  1
KpKpx_MS30  log  factor  10.100000  10.000000  500.000000  Kp  1.0  0.0  1
KpKpx_MS31  log  factor  10.100000  10.000000  500.000000  Kp  1.0  0.0  1
KpKpx_MS32  log  factor  10.100000  10.000000  500.000000  Kp  1.0  0.0  1
KpKpx_MS33  log  factor  10.100000  10.000000  500.000000  Kp  1.0  0.0  1
KpKpx_MS34  log  factor  10.100000  10.000000  500.000000  Kp  1.0  0.0  1
KpKpx_MS35  log  factor  10.100000  10.000000  500.000000  Kp  1.0  0.0  1
KpKpx_MS36  log  factor  10.100000  10.000000  500.000000  Kp  1.0  0.0  1
KpKpx_MS37  log  factor  10.100000  10.000000  500.000000  Kp  1.0  0.0  1
KpKpx_MS38  log  factor  10.100000  10.000000  500.000000  Kp  1.0  0.0  1
KpKpx_MS39  log  factor  10.100000  10.000000  500.000000  Kp  1.0  0.0  1
KpKpx_MS40  log  factor  10.100000  10.000000  500.000000  Kp  1.0  0.0  1
KpKpx_MS41  log  factor  10.100000  10.000000  500.000000  Kp  1.0  0.0  1
KpKpx_MS42  log  factor  10.100000  10.000000  500.000000  Kp  1.0  0.0  1
KpKpx_MS43  log  factor  10.100000  10.000000  500.000000  Kp  1.0  0.0  1
KpKpx_MS44  log  factor  10.100000  10.000000  500.000000  Kp  1.0  0.0  1
KpKpx_MS45  log  factor  10.100000  10.000000  500.000000  Kp  1.0  0.0  1
KpKpx_MS46  log  factor  10.100000  10.000000  500.000000  Kp  1.0  0.0  1
KpKpx_MS47  log  factor  10.100000  10.000000  500.000000  Kp  1.0  0.0  1
KpKpx_MS48  log  factor  10.100000  10.000000  500.000000  Kp  1.0  0.0  1
KpKpx_MS49  log  factor  10.100000  10.000000  500.000000  Kp  1.0  0.0  1
KpKpx_MS50  log  factor  10.100000  10.000000  500.000000  Kp  1.0  0.0  1
KpKpx_MS51  log  factor  10.100000  10.000000  500.000000  Kp  1.0  0.0  1
KpKpx_MS52  log  factor  10.100000  10.000000  500.000000  Kp  1.0  0.0  1
KpKpx_MS53  log  factor  10.100000  10.000000  500.000000  Kp  1.0  0.0  1
KpKpx_MS54  log  factor  10.100000  10.000000  500.000000  Kp  1.0  0.0  1
KpKpx_MS55  log  factor  10.100000  10.000000  500.000000  Kp  1.0  0.0  1
KpKpx_MS56  log  factor  10.100000  10.000000  500.000000  Kp  1.0  0.0  1
KpKpx_MS57  log  factor  10.100000  10.000000  500.000000  Kp  1.0  0.0  1
KpKpx_MS58  log  factor  10.100000  10.000000  500.000000  Kp  1.0  0.0  1
KpKpx_MS59  log  factor  10.100000  10.000000  500.000000  Kp  1.0  0.0  1
KpKpx_MS60  log  factor  10.100000  10.000000  500.000000  Kp  1.0  0.0  1
KpKpx_MS61  log  factor  10.100000  10.000000  500.000000  Kp  1.0  0.0  1
KpKpx_MS62  log  factor  10.100000  10.000000  500.000000  Kp  1.0  0.0  1
KpKpx_MS63  log  factor  10.100000  10.000000  500.000000  Kp  1.0  0.0  1
KpKpx_MS64  log  factor  10.100000  10.000000  500.000000  Kp  1.0  0.0  1
KpKpx_MS65  log  factor  10.100000  10.000000  500.000000  Kp  1.0  0.0  1
KpKpx_MS66  log  factor  10.100000  10.000000  500.000000  Kp  1.0  0.0  1
KpKpx_MS67  log  factor  10.100000  10.000000  500.000000  Kp  1.0  0.0  1
KpKpx_MS68  log  factor  10.100000  10.000000  500.000000  Kp  1.0  0.0  1
KpKpx_MS69  log  factor  10.100000  10.000000  500.000000  Kp  1.0  0.0  1
KpKpx_MS70  log  factor  10.100000  10.000000  500.000000  Kp  1.0  0.0  1
KpKpx_MS71  log  factor  10.100000  10.000000  500.000000  Kp  1.0  0.0  1
KpKpx_MS72  log  factor  10.100000  10.000000  500.000000  Kp  1.0  0.0  1
KpKpx_MS73  log  factor  10.100000  10.000000  500.000000  Kp  1.0  0.0  1
KpKpx_MS74  log  factor  10.100000  10.000000  500.000000  Kp  1.0  0.0  1
KpKpx_MS75  log  factor  10.100000  10.000000  500.000000  Kp  1.0  0.0  1
KpKpx_MS76  log  factor  10.100000  10.000000  500.000000  Kp  1.0  0.0  1
KpKpx_MS77  log  factor  10.100000  10.000000  500.000000  Kp  1.0  0.0  1
KpKpx_MS78  log  factor  10.100000  10.000000  500.000000  Kp  1.0  0.0  1
KpKpx_MS79  log  factor  10.100000  10.000000  500.000000  Kp  1.0  0.0  1
KpKpx_MS80  log  factor  10.100000  10.000000  500.000000  Kp  1.0  0.0  1
KpKpx_MS81  log  factor  10.100000  10.000000  500.000000  Kp  1.0  0.0  1
KpKpx_MS82  log  factor  10.100000  10.000000  500.000000  Kp  1.0  0.0  1
KpKpx_MS83  log  factor  10.100000  10.000000  500.000000  Kp  1.0  0.0  1
KpKpx_MS84  log  factor  10.100000  10.000000  500.000000  Kp  1.0  0.0  1
KpKpx_MS85  log  factor  10.100000  10.000000  500.000000  Kp  1.0  0.0  1
KpKpx_MS86  log  factor  10.100000  10.000000  500.000000  Kp  1.0  0.0  1
KpKpx_MS87  log  factor  10.100000  10.000000  500.000000  Kp  1.0  0.0  1
KpKpx_MS88  log  factor  10.100000  10.000000  500.000000  Kp  1.0  0.0  1
KpKpx_MS89  log  factor  10.100000  10.000000  500.000000  Kp  1.0  0.0  1
KpKpx_MS90  log  factor  10.100000  10.000000  500.000000  Kp  1.0  0.0  1
KpKpx_MS91  log  factor  10.100000  10.000000  500.000000  Kp  1.0  0.0  1
KpKpx_MS92  log  factor  10.100000  10.000000  500.000000  Kp  1.0  0.0  1
KpKpx_MS93  log  factor  10.100000  10.000000  500.000000  Kp  1.0  0.0  1
KpKpx_MS94  log  factor  10.100000  10.000000  500.000000  Kp  1.0  0.0  1
KpKpx_MS95  log  factor  10.100000  10.000000  500.000000  Kp  1.0  0.0  1
KpKpx_MS96  log  factor  10.100000  10.000000  500.000000  Kp  1.0  0.0  1
KpKpx_MS97  log  factor  10.100000  10.000000  500.000000  Kp  1.0  0.0  1
KpKpx_MS98  log  factor  10.100000  10.000000  500.000000  Kp  1.0  0.0  1
KpKpx_MS99  log  factor  10.100000  10.000000  500.000000  Kp  1.0  0.0  1
KzKpz_TC2  log  factor  1.010000e+001  1.000000e+001  5.000000e+002  Kz  1.0  0.0  1
KzKpz_TC3  log  factor  1.010000e+001  1.000000e+001  5.000000e+002  Kz  1.0  0.0  1
KzKpz_TC4  log  factor  1.010000e+001  1.000000e+001  5.000000e+002  Kz  1.0  0.0  1
KzKpz_TC7  log  factor  1.010000e+001  1.000000e+001  5.000000e+002  Kz  1.0  0.0  1
KzKpz_TC8  log  factor  1.010000e+001  1.000000e+001  5.000000e+002  Kz  1.0  0.0  1
KzKpz_TC9  log  factor  1.010000e+001  1.000000e+001  5.000000e+002  Kz  1.0  0.0  1
KzKpz_TC10  log  factor  1.010000e+001  1.000000e+001  5.000000e+002  Kz  1.0  0.0  1
KzKpz_TC11  log  factor  1.010000e+001  1.000000e+001  5.000000e+002  Kz  1.0  0.0  1
KzKpz_TC12  log  factor  1.010000e+001  1.000000e+001  5.000000e+002  Kz  1.0  0.0  1
KzKpz_TC13  log  factor  1.010000e+001  1.000000e+001  5.000000e+002  Kz  1.0  0.0  1
KzKpz_TC14  log  factor  1.010000e+001  1.000000e+001  5.000000e+002  Kz  1.0  0.0  1
KzKpz_TC15  log  factor  1.010000e+001  1.000000e+001  5.000000e+002  Kz  1.0  0.0  1
KzKpz_TC16  log  factor  1.010000e+001  1.000000e+001  5.000000e+002  Kz  1.0  0.0  1
KzKpz_TC17  log  factor  1.010000e+001  1.000000e+001  5.000000e+002  Kz  1.0  0.0  1
KzKpz_TC18  log  factor  1.010000e+001  1.000000e+001  5.000000e+002  Kz  1.0  0.0  1
KzKpz_TC19  log  factor  1.010000e+001  1.000000e+001  5.000000e+002  Kz  1.0  0.0  1
KzKpz_TC20  log  factor  1.010000e+001  1.000000e+001  5.000000e+002  Kz  1.0  0.0  1
KzKpz_TC21  log  factor  1.010000e+001  1.000000e+001  5.000000e+002  Kz  1.0  0.0  1
KzKpz_TC22  log  factor  1.010000e+001  1.000000e+001  5.000000e+002  Kz  1.0  0.0  1
KzKpz_TC23  log  factor  1.010000e+001  1.000000e+001  5.000000e+002  Kz  1.0  0.0  1
KzKpz_TC24  log  factor  1.010000e+001  1.000000e+001  5.000000e+002  Kz  1.0  0.0  1
KzKpz_TC25  log  factor  1.010000e+001  1.000000e+001  5.000000e+002  Kz  1.0  0.0  1
KzKpz_TC27  log  factor  1.010000e+001  1.000000e+001  5.000000e+002  Kz  1.0  0.0  1
KzKpz_TC28  log  factor  1.010000e+001  1.000000e+001  5.000000e+002  Kz  1.0  0.0  1
KzKpz_TC29  log  factor  1.010000e+001  1.000000e+001  5.000000e+002  Kz  1.0  0.0  1
KzKpz_TC30  log  factor  1.010000e+001  1.000000e+001  5.000000e+002  Kz  1.0  0.0  1
KzKpz_TC31  log  factor  1.010000e+001  1.000000e+001  5.000000e+002  Kz  1.0  0.0  1
KzKpz_TC32  log  factor  1.010000e+001  1.000000e+001  5.000000e+002  Kz  1.0  0.0  1
KzKpz_TC33  log  factor  1.010000e+001  1.000000e+001  5.000000e+002  Kz  1.0  0.0  1
KzKpz_TC34  log  factor  1.010000e+001  1.000000e+001  5.000000e+002  Kz  1.0  0.0  1
KzKpz_TC35  log  factor  1.010000e+001  1.000000e+001  5.000000e+002  Kz  1.0  0.0  1
KzKpz_TC36  log  factor  1.010000e+001  1.000000e+001  5.000000e+002  Kz  1.0  0.0  1
KzKpz_TC37  log  factor  1.010000e+001  1.000000e+001  5.000000e+002  Kz  1.0  0.0  1
KzKpz_TC38  log  factor  1.010000e+001  1.000000e+001  5.000000e+002  Kz  1.0  0.0  1
KzKpz_TC39  log  factor  1.010000e+001  1.000000e+001  5.000000e+002  Kz  1.0  0.0  1
KzKpz_TC40  log  factor  1.010000e+001  1.000000e+001  5.000000e+002  Kz  1.0  0.0  1
KzKpz_TC41  log  factor  1.010000e+001  1.000000e+001  5.000000e+002  Kz  1.0  0.0  1
KzKpz_TC42  log  factor  1.010000e+001  1.000000e+001  5.000000e+002  Kz  1.0  0.0  1
KzKpz_TC43  log  factor  1.010000e+001  1.000000e+001  5.000000e+002  Kz  1.0  0.0  1
KzKpz_TC44  log  factor  1.010000e+001  1.000000e+001  5.000000e+002  Kz  1.0  0.0  1
KzKpz_TC45  log  factor  1.010000e+001  1.000000e+001  5.000000e+002  Kz  1.0  0.0  1
KzKpz_TC46  log  factor  1.010000e+001  1.000000e+001  5.000000e+002  Kz  1.0  0.0  1
KzKpz_TC47  log  factor  1.010000e+001  1.000000e+001  5.000000e+002  Kz  1.0  0.0  1
KzKpz_TC48  log  factor  1.010000e+001  1.000000e+001  5.000000e+002  Kz  1.0  0.0  1
KzKpz_TC49  log  factor  1.010000e+001  1.000000e+001  5.000000e+002  Kz  1.0  0.0  1
KzKpz_TC50  log  factor  1.010000e+001  1.000000e+001  5.000000e+002  Kz  1.0  0.0  1
KzKpz_TC52  log  factor  1.010000e+001  1.000000e+001  5.000000e+002  Kz  1.0  0.0  1
KzKpz_TC53  log  factor  1.010000e+001  1.000000e+001  5.000000e+002  Kz  1.0  0.0  1
KzKpz_TC54  log  factor  1.010000e+001  1.000000e+001  5.000000e+002  Kz  1.0  0.0  1
KzKpz_TC55  log  factor  1.010000e+001  1.000000e+001  5.000000e+002  Kz  1.0  0.0  1
KzKpz_TC56  log  factor  1.010000e+001  1.000000e+001  5.000000e+002  Kz  1.0  0.0  1
KzKpz_TC57  log  factor  1.010000e+001  1.000000e+001  5.000000e+002  Kz  1.0  0.0  1
KzKpz_TC58  log  factor  1.010000e+001  1.000000e+001  5.000000e+002  Kz  1.0  0.0  1
KzKpz_TC59  log  factor  1.010000e+001  1.000000e+001  5.000000e+002  Kz  1.0  0.0  1
KzKpz_EC1  log  factor  1.010000e+001  1.000000e+001  5.000000e+002  Kz  1.0  0.0  1
KzKpz_EC2  log  factor  1.010000e+001  1.000000e+001  5.000000e+002  Kz  1.0  0.0  1
KzKpz_EC4  log  factor  1.010000e+001  1.000000e+001  5.000000e+002  Kz  1.0  0.0  1
KzKpz_EC5  log  factor  1.010000e+001  1.000000e+001  5.000000e+002  Kz  1.0  0.0  1
KzKpz_EC7  log  factor  1.010000e+001  1.000000e+001  5.000000e+002  Kz  1.0  0.0  1
KzKpz_EC8  log  factor  1.010000e+001  1.000000e+001  5.000000e+002  Kz  1.0  0.0  1
KzKpz_EC9  log  factor  1.010000e+001  1.000000e+001  5.000000e+002  Kz  1.0  0.0  1
KzKpz_EC10  log  factor  1.010000e+001  1.000000e+001  5.000000e+002  Kz  1.0  0.0  1
KzKpz_EC11  log  factor  1.010000e+001  1.000000e+001  5.000000e+002  Kz  1.0  0.0  1
KzKpz_EC13  log  factor  1.010000e+001  1.000000e+001  5.000000e+002  Kz  1.0  0.0  1
KzKpz_EC14  log  factor  1.010000e+001  1.000000e+001  5.000000e+002  Kz  1.0  0.0  1
KzKpz_EC15  log  factor  1.010000e+001  1.000000e+001  5.000000e+002  Kz  1.0  0.0  1
KzKpz_EC16  log  factor  1.010000e+001  1.000000e+001  5.000000e+002  Kz  1.0  0.0  1
KzKpz_EC17  log  factor  1.010000e+001  1.000000e+001  5.000000e+002  Kz  1.0  0.0  1
KzKpz_EC18  log  factor  1.010000e+001  1.000000e+001  5.000000e+002  Kz  1.0  0.0  1
KzKpz_Ww1  log  factor  1.010000e+001  1.000000e+001  5.000000e+002  Kz  1.0  0.0  1
KzKpz_Ww2  log  factor  1.010000e+001  1.000000e+001  5.000000e+002  Kz  1.0  0.0  1
KzKpz_Ww3  log  factor  1.010000e+001  1.000000e+001  5.000000e+002  Kz  1.0  0.0  1
KzKpz_Ww4  log  factor  1.010000e+001  1.000000e+001  5.000000e+002  Kz  1.0  0.0  1
KzKpz_Ww5  log  factor  1.010000e+001  1.000000e+001  5.000000e+002  Kz  1.0  0.0  1
KzKpz_Ww6  log  factor  1.010000e+001  1.000000e+001  5.000000e+002  Kz  1.0  0.0  1
KzKpz_Ww7  log  factor  1.010000e+001  1.000000e+001  5.000000e+002  Kz  1.0  0.0  1
KzKpz_Ww8  log  factor  1.010000e+001  1.000000e+001  5.000000e+002  Kz  1.0  0.0  1
KzKpz_Ww9  log  factor  1.010000e+001  1.000000e+001  5.000000e+002  Kz  1.0  0.0  1
KzKpz_Ww10  log  factor  1.010000e+001  1.000000e+001  5.000000e+002  Kz  1.0  0.0  1
KzKpz_Ww11  log  factor  1.010000e+001  1.000000e+001  5.000000e+002  Kz  1.0  0.0  1
KzKpz_Ww12  log  factor  1.010000e+001  1.000000e+001  5.000000e+002  Kz  1.0  0.0  1
KzKpz_Ww13  log  factor  1.010000e+001  1.000000e+001  5.000000e+002  Kz  1.0  0.0  1
KzKpz_Ww14  log  factor  1.010000e+001  1.000000e+001  5.000000e+002  Kz  1.0  0.0  1
KzKpz_Ww15  log  factor  1.010000e+001  1.000000e+001  5.000000e+002  Kz  1.0  0.0  1
KzKpz_Ww16  log  factor  1.010000e+001  1.000000e+001  5.000000e+002  Kz  1.0  0.0  1
KzKpz_Ww17  log  factor  1.010000e+001  1.000000e+001  5.000000e+002  Kz  1.0  0.0  1
KzKpz_Ww18  log  factor  1.010000e+001  1.000000e+001  5.000000e+002  Kz  1.0  0.0  1
KzKpz_Ww19  log  factor  1.010000e+001  1.000000e+001  5.000000e+002  Kz  1.0  0.0  1
KzKpz_Ww20  log  factor  1.010000e+001  1.000000e+001  5.000000e+002  Kz  1.0  0.0  1
KzKpz_Ww21  log  factor  1.010000e+001  1.000000e+001  5.000000e+002  Kz  1.0  0.0  1
KzKpz_Ww22  log  factor  1.010000e+001  1.000000e+001  5.000000e+002  Kz  1.0  0.0  1
KzKpz_Ww23  log  factor  1.010000e+001  1.000000e+001  5.000000e+002  Kz  1.0  0.0  1
KzKpz_Ww24  log  factor  1.010000e+001  1.000000e+001  5.000000e+002  Kz  1.0  0.0  1
KzKpz_Ww25  log  factor  1.010000e+001  1.000000e+001  5.000000e+002  Kz  1.0  0.0  1
KzKpz_Ww26  log  factor  1.010000e+001  1.000000e+001  5.000000e+002  Kz  1.0  0.0  1
KzKpz_Ww27  log  factor  1.010000e+001  1.000000e+001  5.000000e+002  Kz  1.0  0.0  1
KzKpz_Ww28  log  factor  1.010000e+001  1.000000e+001  5.000000e+002  Kz  1.0  0.0  1
KzKpz_Ww29  log  factor  1.010000e+001  1.000000e+001  5.000000e+002  Kz  1.0  0.0  1
KzKpz_Ww30  log  factor  1.010000e+001  1.000000e+001  5.000000e+002  Kz  1.0  0.0  1
KzKpz_Ww31  log  factor  1.010000e+001  1.000000e+001  5.000000e+002  Kz  1.0  0.0  1
KzKpz_Ww32  log  factor  1.010000e+001  1.000000e+001  5.000000e+002  Kz  1.0  0.0  1
KzKpz_Ww33  log  factor  1.010000e+001  1.000000e+001  5.000000e+002  Kz  1.0  0.0  1
KzKpz_Ww34  log  factor  1.010000e+001  1.000000e+001  5.000000e+002  Kz  1.0  0.0  1
KzKpz_Ww35  log  factor  1.010000e+001  1.000000e+001  5.000000e+002  Kz  1.0  0.0  1
KzKpz_Ww36  log  factor  1.010000e+001  1.000000e+001  5.000000e+002  Kz  1.0  0.0  1