pcf
* control data
restart estimation
     33   3379      2      0    146
     2     1   single   point   1   0   0
20.000       -3.0000      0.3  0.03  -12     999  lamforgive
5.0   5.0   1.0e-3
0.1  noaui
0   .005  4   4  .005   4
1    1    1    PARSAVEITN
* singular value decomposition
1
33  5.0000000E-07
0
* parameter groups
evap         relative     1.0000E-02   0.000      switch      2.000      parabolic
stor         relative     1.0000E-02   0.000      switch      2.000      parabolic
* parameter data
lakevp1	     log    factor   1.9145380E-02  1.00000e-03   6.00000e-02  evap           1.000       0.000        1
lakevp2	     log    factor   1.7551450E-02  1.00000e-03   6.00000e-02  evap           1.000       0.000        1
lakevp3	     log    factor   1.2804990E-02  1.00000e-03   6.00000e-02  evap           1.000       0.000        1
lakevp4	     log    factor   1.9229200E-02  1.00000e-03   6.00000e-02  evap           1.000       0.000        1
ss3          log    factor   1.0058518E-04  2.60000e-07   5.00000e-03  stor           1.000       0.000        1
ss1          log    factor   9.1106785E-04  2.60000e-07   5.00000e-03  stor           1.000       0.000        1
ss102        log    factor   5.0000000E-03  2.60000e-07   5.00000e-03  stor           1.000       0.000        1
ss106        log    factor   2.4742534E-04  2.60000e-07   5.00000e-03  stor           1.000       0.000        1
ss104        log    factor   1.3676610E-04  2.60000e-07   5.00000e-03  stor           1.000       0.000        1
ss101        log    factor   1.8642143E-03  2.60000e-07   5.00000e-03  stor           1.000       0.000        1
ss103        log    factor   7.0924007E-05  2.60000e-07   5.00000e-03  stor           1.000       0.000        1
ss105        log    factor   1.1035487E-04  2.60000e-07   5.00000e-03  stor           1.000       0.000        1
ss107        log    factor   2.1099836E-04  2.60000e-07   5.00000e-03  stor           1.000       0.000        1
sy3          log    factor   3.5019702E-02  1.00000e-02   0.30000      stor           1.000       0.000        1
sy1          log    factor   1.0336836E-02  1.00000e-02   0.30000      stor           1.000       0.000        1
sy102        log    factor   1.4618934E-02  1.00000e-02   0.30000      stor           1.000       0.000        1
sy106        log    factor   0.3000000      1.00000e-02   0.30000      stor           1.000       0.000        1
sy104        log    factor   6.5919512E-02  1.00000e-02   0.30000      stor           1.000       0.000        1
sy101        log    factor   0.2576770      1.00000e-02   0.30000      stor           1.000       0.000        1
sy103        log    factor   0.1132553      1.00000e-02   0.30000      stor           1.000       0.000        1
sy105        log    factor   6.7977564E-02  1.00000e-02   0.30000      stor           1.000       0.000        1
sy107        log    factor   7.2654096E-02  1.00000e-02   0.30000      stor           1.000       0.000        1
ss4          log    factor   5.0489785E-05  2.60000e-07   5.00000e-03  stor           1.000       0.000        1
sy4          log    factor   7.3585911E-02  1.00000e-02   0.30000      stor           1.000       0.000        1
ss5          log    factor   7.1933222E-05  2.60000e-07   5.00000e-03  stor           1.000       0.000        1
sy5          log    factor   6.5041690E-02  1.00000e-02   0.30000      stor           1.000       0.000        1
ss6          log    factor   1.6043451E-04  2.60000e-07   5.00000e-03  stor           1.000       0.000        1
ss11         log    factor   2.5854183E-04  2.60000e-07   5.00000e-03  stor           1.000       0.000        1
ss7          log    factor   1.2430298E-05  2.60000e-07   5.00000e-03  stor           1.000       0.000        1
ss8          log    factor   2.6342387E-05  2.60000e-07   5.00000e-03  stor           1.000       0.000        1
ss12         log    factor   2.0662702E-04  2.60000e-07   5.00000e-03  stor           1.000       0.000        1
ss9          log    factor   8.2691190E-06  2.60000e-07   5.00000e-03  stor           1.000       0.000        1
ss10         log    factor   2.4319758E-05  2.60000e-07   5.00000e-03  stor           1.000       0.000        1
* observation groups
13006101_s
13006104_s
13006109_s
130060081_s
130060082_s
130060083_s
130060084_s
25000512_s
13001481_s
13001482_s
13006018_s
13006017_s
13006039_s
13000005_s
13000064_s
13000083_s
13000927_s
13001136_s
13001289_s
13001297_s
13001355_s
13001440_s
13006021_s
13006023_s
13006024_s
13006101_sm
13006104_sm
13006109_sm
130060081_sm
130060082_sm
130060083_sm
130060084_sm
25000512_sm
13001481_sm
13001482_sm
13006018_sm
13006017_sm
13006039_sm
13000005_sm
13000064_sm
13000083_sm
13000927_sm
13001136_sm
13001289_sm
13001297_sm
13001355_sm
13001440_sm
13006021_sm
13006023_sm
13006024_sm
13006101_sr
13006104_sr
13006109_sr
130060081_sr
130060082_sr
130060083_sr
130060084_sr
25000512_sr
13001481_sr
13001482_sr
13006018_sr
13006017_sr
13006039_sr
13000005_sr
13000064_sr
13000083_sr
13000927_sr
13001136_sr
13001289_sr
13001297_sr
13001355_sr
13001440_sr
13006021_sr
13006023_sr
13006024_sr
13006101_sd
13006104_sd
13006109_sd
130060081_sd
130060082_sd
130060083_sd
130060084_sd
25000512_sd
13006018_sd
13006017_sd
13006039_sd
13000064_sd
13000083_sd
13001297_sd
13001355_sd
13001440_sd
13006021_sd
13006023_sd
13006024_sd
mendota_s
monona_s
waubesa_s
kegonsa_s
mendota_sd
monona_sd
waubesa_sd
kegonsa_sd
bec_us_cp_s
bec@be_s
pb@airpt_s
pb@12_s
yah@wau_s
ya_ds_keg_s
pleasva_s
badgrmil_s
sugariv_s
bec_us_cp_sl
bec@be_sl
pb@airpt_sl
pb@12_sl
yah@wau_sl
ya_ds_keg_sl
pleasva_sl
badgrmil_sl
sugariv_sl
bec_us_cp_sd
bec@be_sd
pb@airpt_sd
pb@12_sd
yah@wau_sd
ya_ds_keg_sd
pleasva_sd
badgrmil_sd
sugariv_sd
bec_us_cp_sm
bec@be_sm
pb@airpt_sm
pb@12_sm
yah@wau_sm
ya_ds_keg_sm
pleasva_sm
badgrmil_sm
sugariv_sm
ms_mendota
ms_monona
ms_waubesa
ms_kegonsa
rs_mendota
rs_monona
rs_waubesa
rs_kegonsa
* observation data
13006101_s_1       8.9534000E+02     0.00E+00     13006101_s
13006101_s_2       8.9528000E+02     0.00E+00     13006101_s
13006101_s_3       8.9538000E+02     0.00E+00     13006101_s
13006101_s_4       8.9536000E+02     0.00E+00     13006101_s
13006101_s_5       8.9538000E+02     0.00E+00     13006101_s
13006101_s_6       8.9537000E+02     0.00E+00     13006101_s
13006101_s_7       8.9538000E+02     0.00E+00     13006101_s
13006101_s_8       8.9523000E+02     0.00E+00     13006101_s
13006101_s_9       8.9528000E+02     0.00E+00     13006101_s
13006101_s_10      8.9513000E+02     0.00E+00     13006101_s
13006101_s_11      8.9525000E+02     0.00E+00     13006101_s
13006101_s_12      8.9526000E+02     0.00E+00     13006101_s
13006101_s_13      8.9523000E+02     0.00E+00     13006101_s
13006101_s_14      8.9519000E+02     0.00E+00     13006101_s
13006101_s_15      8.9521000E+02     0.00E+00     13006101_s
13006101_s_16      8.9520000E+02     0.00E+00     13006101_s
13006101_s_17      8.9510000E+02     0.00E+00     13006101_s
13006101_s_18      8.9506000E+02     0.00E+00     13006101_s
13006101_s_19      8.9505000E+02     0.00E+00     13006101_s
13006101_s_20      8.9517000E+02     0.00E+00     13006101_s
13006101_s_21      8.9502000E+02     0.00E+00     13006101_s
13006101_s_22      8.9508000E+02     0.00E+00     13006101_s
13006101_s_23      8.9513000E+02     0.00E+00     13006101_s
13006101_s_24      8.9502000E+02     0.00E+00     13006101_s
13006101_s_25      8.9502000E+02     0.00E+00     13006101_s
13006101_s_26      8.9499000E+02     0.00E+00     13006101_s
13006101_s_27      8.9503000E+02     0.00E+00     13006101_s
13006101_s_28      8.9500000E+02     0.00E+00     13006101_s
13006101_s_29      8.9494000E+02     0.00E+00     13006101_s
13006101_s_30      8.9493000E+02     0.00E+00     13006101_s
13006101_s_31      8.9500000E+02     0.00E+00     13006101_s
13006101_s_32      8.9494000E+02     0.00E+00     13006101_s
13006101_s_33      8.9488000E+02     0.00E+00     13006101_s
13006101_s_34      8.9491000E+02     0.00E+00     13006101_s
13006101_s_35      8.9480000E+02     0.00E+00     13006101_s
13006101_s_36      8.9481000E+02     0.00E+00     13006101_s
13006101_s_37      8.9477000E+02     0.00E+00     13006101_s
13006101_s_38      8.9478000E+02     0.00E+00     13006101_s
13006101_s_39      8.9485000E+02     0.00E+00     13006101_s
13006101_s_40      8.9477000E+02     0.00E+00     13006101_s
13006101_s_41      8.9474000E+02     0.00E+00     13006101_s
13006101_s_42      8.9478000E+02     0.00E+00     13006101_s
13006101_s_43      8.9473000E+02     0.00E+00     13006101_s
13006101_s_44      8.9478000E+02     0.00E+00     13006101_s
13006101_s_45      8.9469000E+02     0.00E+00     13006101_s
13006101_s_46      8.9472000E+02     0.00E+00     13006101_s
13006104_s_1       8.9580000E+02     0.00E+00     13006104_s
13006104_s_2       8.9579000E+02     0.00E+00     13006104_s
13006104_s_3       8.9578000E+02     0.00E+00     13006104_s
13006104_s_4       8.9575000E+02     0.00E+00     13006104_s
13006104_s_5       8.9573000E+02     0.00E+00     13006104_s
13006104_s_6       8.9572000E+02     0.00E+00     13006104_s
13006104_s_7       8.9569000E+02     0.00E+00     13006104_s
13006104_s_8       8.9566000E+02     0.00E+00     13006104_s
13006104_s_9       8.9566000E+02     0.00E+00     13006104_s
13006104_s_10      8.9561000E+02     0.00E+00     13006104_s
13006104_s_11      8.9558000E+02     0.00E+00     13006104_s
13006104_s_12      8.9557000E+02     0.00E+00     13006104_s
13006104_s_13      8.9557000E+02     0.00E+00     13006104_s
13006104_s_14      8.9557000E+02     0.00E+00     13006104_s
13006104_s_15      8.9556000E+02     0.00E+00     13006104_s
13006104_s_16      8.9554000E+02     0.00E+00     13006104_s
13006104_s_17      8.9549000E+02     0.00E+00     13006104_s
13006104_s_18      8.9550000E+02     0.00E+00     13006104_s
13006104_s_19      8.9546000E+02     0.00E+00     13006104_s
13006104_s_20      8.9543000E+02     0.00E+00     13006104_s
13006104_s_21      8.9541000E+02     0.00E+00     13006104_s
13006104_s_22      8.9541000E+02     0.00E+00     13006104_s
13006104_s_23      8.9542000E+02     0.00E+00     13006104_s
13006104_s_24      8.9542000E+02     0.00E+00     13006104_s
13006104_s_25      8.9538000E+02     0.00E+00     13006104_s
13006104_s_26      8.9536000E+02     0.00E+00     13006104_s
13006104_s_27      8.9535000E+02     0.00E+00     13006104_s
13006104_s_28      8.9528000E+02     0.00E+00     13006104_s
13006104_s_29      8.9525000E+02     0.00E+00     13006104_s
13006104_s_30      8.9527000E+02     0.00E+00     13006104_s
13006104_s_31      8.9521000E+02     0.00E+00     13006104_s
13006104_s_32      8.9521000E+02     0.00E+00     13006104_s
13006104_s_33      8.9519000E+02     0.00E+00     13006104_s
13006104_s_34      8.9518000E+02     0.00E+00     13006104_s
13006104_s_35      8.9513000E+02     0.00E+00     13006104_s
13006104_s_36      8.9513000E+02     0.00E+00     13006104_s
13006104_s_37      8.9508000E+02     0.00E+00     13006104_s
13006104_s_38      8.9506000E+02     0.00E+00     13006104_s
13006104_s_39      8.9507000E+02     0.00E+00     13006104_s
13006104_s_40      8.9502000E+02     0.00E+00     13006104_s
13006104_s_41      8.9503000E+02     0.00E+00     13006104_s
13006104_s_42      8.9502000E+02     0.00E+00     13006104_s
13006104_s_43      8.9499000E+02     0.00E+00     13006104_s
13006104_s_44      8.9496000E+02     0.00E+00     13006104_s
13006104_s_45      8.9496000E+02     0.00E+00     13006104_s
13006104_s_46      8.9493000E+02     0.00E+00     13006104_s
13006109_s_1       8.8707000E+02     0.00E+00     13006109_s
13006109_s_2       8.8702000E+02     0.00E+00     13006109_s
13006109_s_3       8.8697000E+02     0.00E+00     13006109_s
13006109_s_4       8.8696000E+02     0.00E+00     13006109_s
13006109_s_5       8.8694000E+02     0.00E+00     13006109_s
13006109_s_6       8.8694000E+02     0.00E+00     13006109_s
13006109_s_7       8.8692000E+02     0.00E+00     13006109_s
13006109_s_8       8.8690000E+02     0.00E+00     13006109_s
13006109_s_9       8.8685000E+02     0.00E+00     13006109_s
13006109_s_10      8.8679000E+02     0.00E+00     13006109_s
13006109_s_11      8.8677000E+02     0.00E+00     13006109_s
13006109_s_12      8.8673000E+02     0.00E+00     13006109_s
13006109_s_13      8.8676000E+02     0.00E+00     13006109_s
13006109_s_14      8.8676000E+02     0.00E+00     13006109_s
13006109_s_15      8.8671000E+02     0.00E+00     13006109_s
13006109_s_16      8.8668000E+02     0.00E+00     13006109_s
13006109_s_17      8.8663000E+02     0.00E+00     13006109_s
13006109_s_18      8.8659000E+02     0.00E+00     13006109_s
13006109_s_19      8.8651000E+02     0.00E+00     13006109_s
13006109_s_20      8.8653000E+02     0.00E+00     13006109_s
13006109_s_21      8.8650000E+02     0.00E+00     13006109_s
13006109_s_22      8.8646000E+02     0.00E+00     13006109_s
13006109_s_23      8.8646000E+02     0.00E+00     13006109_s
13006109_s_24      8.8644000E+02     0.00E+00     13006109_s
13006109_s_25      8.8639000E+02     0.00E+00     13006109_s
13006109_s_26      8.8638000E+02     0.00E+00     13006109_s
13006109_s_27      8.8635000E+02     0.00E+00     13006109_s
13006109_s_28      8.8626000E+02     0.00E+00     13006109_s
13006109_s_29      8.8619000E+02     0.00E+00     13006109_s
13006109_s_30      8.8622000E+02     0.00E+00     13006109_s
13006109_s_31      8.8613000E+02     0.00E+00     13006109_s
13006109_s_32      8.8614000E+02     0.00E+00     13006109_s
13006109_s_33      8.8609000E+02     0.00E+00     13006109_s
13006109_s_34      8.8604000E+02     0.00E+00     13006109_s
13006109_s_35      8.8596000E+02     0.00E+00     13006109_s
13006109_s_36      8.8593000E+02     0.00E+00     13006109_s
13006109_s_37      8.8589000E+02     0.00E+00     13006109_s
13006109_s_38      8.8585000E+02     0.00E+00     13006109_s
13006109_s_39      8.8585000E+02     0.00E+00     13006109_s
13006109_s_40      8.8580000E+02     0.00E+00     13006109_s
13006109_s_41      8.8579000E+02     0.00E+00     13006109_s
13006109_s_42      8.8576000E+02     0.00E+00     13006109_s
13006109_s_43      8.8571000E+02     0.00E+00     13006109_s
13006109_s_44      8.8566000E+02     0.00E+00     13006109_s
13006109_s_45      8.8563000E+02     0.00E+00     13006109_s
13006109_s_46      8.8558000E+02     0.00E+00     13006109_s
130060081_s_1      8.6226000E+02     0.00E+00     130060081_s
130060081_s_2      8.6223000E+02     0.00E+00     130060081_s
130060081_s_3      8.6202000E+02     0.00E+00     130060081_s
130060081_s_4      8.6207000E+02     0.00E+00     130060081_s
130060081_s_5      8.6206000E+02     0.00E+00     130060081_s
130060081_s_6      8.6208000E+02     0.00E+00     130060081_s
130060081_s_7      8.6214000E+02     0.00E+00     130060081_s
130060081_s_8      8.6198000E+02     0.00E+00     130060081_s
130060081_s_9      8.6177000E+02     0.00E+00     130060081_s
130060081_s_10     8.6153000E+02     0.00E+00     130060081_s
130060081_s_11     8.6151000E+02     0.00E+00     130060081_s
130060081_s_12     8.6153000E+02     0.00E+00     130060081_s
130060081_s_13     8.6184000E+02     0.00E+00     130060081_s
130060081_s_14     8.6189000E+02     0.00E+00     130060081_s
130060081_s_15     8.6168000E+02     0.00E+00     130060081_s
130060081_s_16     8.6171000E+02     0.00E+00     130060081_s
130060081_s_17     8.6140000E+02     0.00E+00     130060081_s
130060081_s_18     8.6136000E+02     0.00E+00     130060081_s
130060081_s_19     8.6116000E+02     0.00E+00     130060081_s
130060081_s_20     8.6116000E+02     0.00E+00     130060081_s
130060081_s_21     8.6121000E+02     0.00E+00     130060081_s
130060081_s_22     8.6136000E+02     0.00E+00     130060081_s
130060081_s_23     8.6143000E+02     0.00E+00     130060081_s
130060081_s_24     8.6141000E+02     0.00E+00     130060081_s
130060081_s_25     8.6126000E+02     0.00E+00     130060081_s
130060081_s_26     8.6133000E+02     0.00E+00     130060081_s
130060081_s_27     8.6126000E+02     0.00E+00     130060081_s
130060081_s_28     8.6101000E+02     0.00E+00     130060081_s
130060081_s_29     8.6083000E+02     0.00E+00     130060081_s
130060081_s_30     8.6092000E+02     0.00E+00     130060081_s
130060081_s_31     8.6084000E+02     0.00E+00     130060081_s
130060081_s_32     8.6097000E+02     0.00E+00     130060081_s
130060081_s_33     8.6089000E+02     0.00E+00     130060081_s
130060081_s_34     8.6067000E+02     0.00E+00     130060081_s
130060081_s_35     8.6063000E+02     0.00E+00     130060081_s
130060081_s_36     8.6066000E+02     0.00E+00     130060081_s
130060081_s_37     8.6064000E+02     0.00E+00     130060081_s
130060081_s_38     8.6068000E+02     0.00E+00     130060081_s
130060081_s_39     8.6082000E+02     0.00E+00     130060081_s
130060081_s_40     8.6080000E+02     0.00E+00     130060081_s
130060081_s_41     8.6072000E+02     0.00E+00     130060081_s
130060081_s_42     8.6073000E+02     0.00E+00     130060081_s
130060081_s_43     8.6059000E+02     0.00E+00     130060081_s
130060081_s_44     8.6045000E+02     0.00E+00     130060081_s
130060081_s_45     8.6033000E+02     0.00E+00     130060081_s
130060081_s_46     8.6030000E+02     0.00E+00     130060081_s
130060082_s_1      8.5375000E+02     0.00E+00     130060082_s
130060082_s_2      8.5377000E+02     0.00E+00     130060082_s
130060082_s_3      8.5362000E+02     0.00E+00     130060082_s
130060082_s_4      8.5380000E+02     0.00E+00     130060082_s
130060082_s_5      8.5353000E+02     0.00E+00     130060082_s
130060082_s_6      8.5272000E+02     0.00E+00     130060082_s
130060082_s_7      8.5239000E+02     0.00E+00     130060082_s
130060082_s_8      8.5210000E+02     0.00E+00     130060082_s
130060082_s_9      8.5182000E+02     0.00E+00     130060082_s
130060082_s_10     8.5239000E+02     0.00E+00     130060082_s
130060082_s_11     8.5219000E+02     0.00E+00     130060082_s
130060082_s_12     8.5195000E+02     0.00E+00     130060082_s
130060082_s_13     8.5248000E+02     0.00E+00     130060082_s
130060082_s_14     8.5200000E+02     0.00E+00     130060082_s
130060082_s_15     8.5259000E+02     0.00E+00     130060082_s
130060082_s_16     8.5255000E+02     0.00E+00     130060082_s
130060082_s_17     8.5164000E+02     0.00E+00     130060082_s
130060082_s_18     8.5183000E+02     0.00E+00     130060082_s
130060082_s_19     8.5191000E+02     0.00E+00     130060082_s
130060082_s_20     8.5184000E+02     0.00E+00     130060082_s
130060082_s_21     8.5117000E+02     0.00E+00     130060082_s
130060082_s_22     8.5160000E+02     0.00E+00     130060082_s
130060082_s_23     8.5150000E+02     0.00E+00     130060082_s
130060082_s_24     8.5113000E+02     0.00E+00     130060082_s
130060082_s_25     8.5134000E+02     0.00E+00     130060082_s
130060082_s_26     8.5099000E+02     0.00E+00     130060082_s
130060082_s_27     8.5075000E+02     0.00E+00     130060082_s
130060082_s_28     8.5104000E+02     0.00E+00     130060082_s
130060082_s_29     8.5068000E+02     0.00E+00     130060082_s
130060082_s_30     8.5042000E+02     0.00E+00     130060082_s
130060082_s_31     8.5135000E+02     0.00E+00     130060082_s
130060082_s_32     8.5150000E+02     0.00E+00     130060082_s
130060082_s_33     8.5076000E+02     0.00E+00     130060082_s
130060082_s_34     8.5042000E+02     0.00E+00     130060082_s
130060082_s_35     8.5057000E+02     0.00E+00     130060082_s
130060082_s_36     8.5022000E+02     0.00E+00     130060082_s
130060082_s_37     8.5023000E+02     0.00E+00     130060082_s
130060082_s_38     8.5019000E+02     0.00E+00     130060082_s
130060082_s_39     8.5091000E+02     0.00E+00     130060082_s
130060082_s_40     8.5057000E+02     0.00E+00     130060082_s
130060082_s_41     8.5000000E+02     0.00E+00     130060082_s
130060082_s_42     8.5034000E+02     0.00E+00     130060082_s
130060082_s_43     8.4976000E+02     0.00E+00     130060082_s
130060082_s_44     8.4951000E+02     0.00E+00     130060082_s
130060082_s_45     8.5005000E+02     0.00E+00     130060082_s
130060082_s_46     8.5016000E+02     0.00E+00     130060082_s
130060083_s_1      8.5413000E+02     0.00E+00     130060083_s
130060083_s_2      8.5416000E+02     0.00E+00     130060083_s
130060083_s_3      8.5399000E+02     0.00E+00     130060083_s
130060083_s_4      8.5417000E+02     0.00E+00     130060083_s
130060083_s_5      8.5391000E+02     0.00E+00     130060083_s
130060083_s_6      8.5311000E+02     0.00E+00     130060083_s
130060083_s_7      8.5275000E+02     0.00E+00     130060083_s
130060083_s_8      8.5245000E+02     0.00E+00     130060083_s
130060083_s_9      8.5217000E+02     0.00E+00     130060083_s
130060083_s_10     8.5277000E+02     0.00E+00     130060083_s
130060083_s_11     8.5256000E+02     0.00E+00     130060083_s
130060083_s_12     8.5232000E+02     0.00E+00     130060083_s
130060083_s_13     8.5286000E+02     0.00E+00     130060083_s
130060083_s_14     8.5236000E+02     0.00E+00     130060083_s
130060083_s_15     8.5295000E+02     0.00E+00     130060083_s
130060083_s_16     8.5293000E+02     0.00E+00     130060083_s
130060083_s_17     8.5203000E+02     0.00E+00     130060083_s
130060083_s_18     8.5217000E+02     0.00E+00     130060083_s
130060083_s_19     8.5226000E+02     0.00E+00     130060083_s
130060083_s_20     8.5221000E+02     0.00E+00     130060083_s
130060083_s_21     8.5153000E+02     0.00E+00     130060083_s
130060083_s_22     8.5197000E+02     0.00E+00     130060083_s
130060083_s_23     8.5187000E+02     0.00E+00     130060083_s
130060083_s_24     8.5150000E+02     0.00E+00     130060083_s
130060083_s_25     8.5170000E+02     0.00E+00     130060083_s
130060083_s_26     8.5134000E+02     0.00E+00     130060083_s
130060083_s_27     8.5110000E+02     0.00E+00     130060083_s
130060083_s_28     8.5142000E+02     0.00E+00     130060083_s
130060083_s_29     8.5104000E+02     0.00E+00     130060083_s
130060083_s_30     8.5078000E+02     0.00E+00     130060083_s
130060083_s_31     8.5171000E+02     0.00E+00     130060083_s
130060083_s_32     8.5189000E+02     0.00E+00     130060083_s
130060083_s_33     8.5111000E+02     0.00E+00     130060083_s
130060083_s_34     8.5079000E+02     0.00E+00     130060083_s
130060083_s_35     8.5095000E+02     0.00E+00     130060083_s
130060083_s_36     8.5058000E+02     0.00E+00     130060083_s
130060083_s_37     8.5061000E+02     0.00E+00     130060083_s
130060083_s_38     8.5055000E+02     0.00E+00     130060083_s
130060083_s_39     8.5128000E+02     0.00E+00     130060083_s
130060083_s_40     8.5094000E+02     0.00E+00     130060083_s
130060083_s_41     8.5037000E+02     0.00E+00     130060083_s
130060083_s_42     8.5070000E+02     0.00E+00     130060083_s
130060083_s_43     8.5012000E+02     0.00E+00     130060083_s
130060083_s_44     8.4987000E+02     0.00E+00     130060083_s
130060083_s_45     8.5043000E+02     0.00E+00     130060083_s
130060083_s_46     8.5053000E+02     0.00E+00     130060083_s
130060084_s_1      8.2534000E+02     0.00E+00     130060084_s
130060084_s_2      8.1719000E+02     0.00E+00     130060084_s
130060084_s_3      8.1258000E+02     0.00E+00     130060084_s
130060084_s_4      8.1382000E+02     0.00E+00     130060084_s
130060084_s_5      8.1351000E+02     0.00E+00     130060084_s
130060084_s_6      8.1183000E+02     0.00E+00     130060084_s
130060084_s_7      8.1114000E+02     0.00E+00     130060084_s
130060084_s_8      8.1028000E+02     0.00E+00     130060084_s
130060084_s_9      8.0910000E+02     0.00E+00     130060084_s
130060084_s_10     8.0813000E+02     0.00E+00     130060084_s
130060084_s_11     8.0811000E+02     0.00E+00     130060084_s
130060084_s_12     8.0863000E+02     0.00E+00     130060084_s
130060084_s_13     8.0882000E+02     0.00E+00     130060084_s
130060084_s_14     8.0906000E+02     0.00E+00     130060084_s
130060084_s_15     8.1032000E+02     0.00E+00     130060084_s
130060084_s_16     8.1129000E+02     0.00E+00     130060084_s
130060084_s_17     8.1066000E+02     0.00E+00     130060084_s
130060084_s_18     8.0992000E+02     0.00E+00     130060084_s
130060084_s_19     8.1181000E+02     0.00E+00     130060084_s
130060084_s_20     8.1161000E+02     0.00E+00     130060084_s
130060084_s_21     8.1670000E+02     0.00E+00     130060084_s
130060084_s_22     8.0893000E+02     0.00E+00     130060084_s
130060084_s_23     8.0683000E+02     0.00E+00     130060084_s
130060084_s_24     8.0784000E+02     0.00E+00     130060084_s
130060084_s_25     8.0855000E+02     0.00E+00     130060084_s
130060084_s_26     8.0614000E+02     0.00E+00     130060084_s
130060084_s_27     8.0698000E+02     0.00E+00     130060084_s
130060084_s_28     8.0664000E+02     0.00E+00     130060084_s
130060084_s_29     8.0559000E+02     0.00E+00     130060084_s
130060084_s_30     8.0548000E+02     0.00E+00     130060084_s
130060084_s_31     8.0737000E+02     0.00E+00     130060084_s
130060084_s_32     8.0616000E+02     0.00E+00     130060084_s
130060084_s_33     8.0547000E+02     0.00E+00     130060084_s
130060084_s_34     8.0553000E+02     0.00E+00     130060084_s
130060084_s_35     8.0578000E+02     0.00E+00     130060084_s
130060084_s_36     8.0607000E+02     0.00E+00     130060084_s
130060084_s_37     8.0859000E+02     0.00E+00     130060084_s
130060084_s_38     8.0523000E+02     0.00E+00     130060084_s
130060084_s_39     8.0580000E+02     0.00E+00     130060084_s
130060084_s_40     8.0507000E+02     0.00E+00     130060084_s
130060084_s_41     8.0473000E+02     0.00E+00     130060084_s
130060084_s_42     8.0421000E+02     0.00E+00     130060084_s
130060084_s_43     8.0315000E+02     0.00E+00     130060084_s
130060084_s_44     8.0386000E+02     0.00E+00     130060084_s
130060084_s_45     8.0301000E+02     0.00E+00     130060084_s
130060084_s_46     8.0318000E+02     0.00E+00     130060084_s
25000512_s_1       8.5252000E+02     0.00E+00     25000512_s
25000512_s_2       8.5248000E+02     0.00E+00     25000512_s
25000512_s_3       8.5240000E+02     0.00E+00     25000512_s
25000512_s_4       8.5242000E+02     0.00E+00     25000512_s
25000512_s_5       8.5245000E+02     0.00E+00     25000512_s
25000512_s_6       8.5250000E+02     0.00E+00     25000512_s
25000512_s_7       8.5252000E+02     0.00E+00     25000512_s
25000512_s_8       8.5254000E+02     0.00E+00     25000512_s
25000512_s_9       8.5247000E+02     0.00E+00     25000512_s
25000512_s_10      8.5240000E+02     0.00E+00     25000512_s
25000512_s_11      8.5237000E+02     0.00E+00     25000512_s
25000512_s_12      8.5234000E+02     0.00E+00     25000512_s
25000512_s_13      8.5245000E+02     0.00E+00     25000512_s
25000512_s_14      8.5246000E+02     0.00E+00     25000512_s
25000512_s_15      8.5242000E+02     0.00E+00     25000512_s
25000512_s_16      8.5241000E+02     0.00E+00     25000512_s
25000512_s_17      8.5238000E+02     0.00E+00     25000512_s
25000512_s_18      8.5232000E+02     0.00E+00     25000512_s
25000512_s_19      8.5219000E+02     0.00E+00     25000512_s
25000512_s_20      8.5224000E+02     0.00E+00     25000512_s
25000512_s_21      8.5226000E+02     0.00E+00     25000512_s
25000512_s_22      8.5227000E+02     0.00E+00     25000512_s
25000512_s_23      8.5230000E+02     0.00E+00     25000512_s
25000512_s_24      8.5228000E+02     0.00E+00     25000512_s
25000512_s_25      8.5226000E+02     0.00E+00     25000512_s
25000512_s_26      8.5230000E+02     0.00E+00     25000512_s
25000512_s_27      8.5226000E+02     0.00E+00     25000512_s
25000512_s_28      8.5218000E+02     0.00E+00     25000512_s
25000512_s_29      8.5215000E+02     0.00E+00     25000512_s
25000512_s_30      8.5215000E+02     0.00E+00     25000512_s
25000512_s_31      8.5210000E+02     0.00E+00     25000512_s
25000512_s_32      8.5213000E+02     0.00E+00     25000512_s
25000512_s_33      8.5212000E+02     0.00E+00     25000512_s
25000512_s_34      8.5211000E+02     0.00E+00     25000512_s
25000512_s_35      8.5206000E+02     0.00E+00     25000512_s
25000512_s_36      8.5205000E+02     0.00E+00     25000512_s
25000512_s_37      8.5206000E+02     0.00E+00     25000512_s
25000512_s_38      8.5207000E+02     0.00E+00     25000512_s
25000512_s_39      8.5207000E+02     0.00E+00     25000512_s
25000512_s_40      8.5204000E+02     0.00E+00     25000512_s
25000512_s_41      8.5205000E+02     0.00E+00     25000512_s
25000512_s_42      8.5205000E+02     0.00E+00     25000512_s
25000512_s_43      8.5204000E+02     0.00E+00     25000512_s
25000512_s_44      8.5202000E+02     0.00E+00     25000512_s
25000512_s_45      8.5199000E+02     0.00E+00     25000512_s
25000512_s_46      8.5197000E+02     0.00E+00     25000512_s
13001481_s_1       8.3403000E+02     0.00E+00     13001481_s
13001482_s_1       8.0873000E+02     0.00E+00     13001482_s
13006018_s_1       8.5107000E+02     0.00E+00     13006018_s
13006018_s_2       8.5105000E+02     0.00E+00     13006018_s
13006018_s_3       8.5098000E+02     0.00E+00     13006018_s
13006018_s_4       8.5099000E+02     0.00E+00     13006018_s
13006018_s_5       8.5104000E+02     0.00E+00     13006018_s
13006018_s_6       8.5111000E+02     0.00E+00     13006018_s
13006018_s_7       8.5116000E+02     0.00E+00     13006018_s
13006018_s_8       8.5120000E+02     0.00E+00     13006018_s
13006018_s_9       8.5118000E+02     0.00E+00     13006018_s
13006018_s_10      8.5112000E+02     0.00E+00     13006018_s
13006018_s_11      8.5112000E+02     0.00E+00     13006018_s