pcf
* control data
restart estimation
     13     6300       2     0       2
     30     120 single  point  1   0   0
 10.0  -3.0  0.3  0.03  10
 10.0  10.0  0.001
 0.1
 -1  0.005  4  4  0.005  4  12.1
 1  1  1
* singular value decomposition
1
8  5e-7
0
* parameter groups
 Adv   relative    0.01  0.0  switch  2.0 parabolic      
 Dis   relative    0.01  0.0  switch  2.0 parabolic 
* parameter data
INIT_I_FLOW  fixed factor   0.00000000000000e+00	   -1.0e-10  1.0e10 ADV  1.0  0.0  1
Conductivity log  factor   2.106549e-01		   1.0e-10  1.0e10 ADV  1.0  0.0  1
Anisofact    log  factor   1.000000e+00		   1.0e-10  1.0e10 ADV  1.0  0.0  1
Anisoang     fixed factor   0.000000e+00		   -1.0e-10  1.0e10 ADV  1.0  0.0  1
density      log  factor   2.000000e-01		   1.0e-10  1.0e10 ADV  1.0  0.0  1
Ss           log  factor   1.000000e-08		   1.0e-10  1.0e10 ADV  1.0  0.0  1
src-sink     fixed factor   0.000000e+00		   -1.0e-10  1.0e10 DIS  1.0  0.0  1
Aq-thk       log  factor   1.000000e+00		   1.0e-10  1.0e10 ADV  1.0  0.0  1
eff_poros    log  factor   1.000000e-01		   1.0e-10  1.0e10 ADV  1.0  0.0  1
mol_diffus   log  factor   3.080160e-01		   1.0e-10  1.0e10 DIS  1.0  0.0  1
long_D       fixed  factor   1.000000e-10		   1.0e-11  1.0e10 DIS  1.0  0.0  1
trans_D      fixed  factor   1.000000e-10		   1.0e-11  1.0e10 DIS  1.0  0.0  1
Addit_D      log  factor   1.000000e-03		   1.0e-10  1.0e10 DIS  1.0  0.0  1
* observation groups
 micro_pred
 macro_pred
* observation data
COM_t36.5_v1	    146.975963	1	macro_pred
SHERW_t36.5_v1	      2.679784	1	macro_pred
Tmass_t36.5_v1	    115.277236	1	macro_pred
NF_t36.5_v1	     13.000000	1	micro_pred
fingerY_t36.5_v1	    143.707198	1	micro_pred
COM_t146_v1	    143.962593	1	macro_pred
SHERW_t146_v1	      1.348877	1	macro_pred
Tmass_t146_v1	    233.288138	1	macro_pred
NF_t146_v1	      8.000000	1	micro_pred
fingerY_t146_v1	    136.655098	1	micro_pred
COM_t255.5_v1	    141.925493	1	macro_pred
SHERW_t255.5_v1	      1.048548	1	macro_pred
Tmass_t255.5_v1	    311.990735	1	macro_pred
NF_t255.5_v1	      7.000000	1	micro_pred
fingerY_t255.5_v1	    131.283119	1	micro_pred
COM_t365_v1	    140.208311	1	macro_pred
SHERW_t365_v1	      0.908657	1	macro_pred
Tmass_t365_v1	    377.177450	1	macro_pred
NF_t365_v1	      8.000000	1	micro_pred
fingerY_t365_v1	    126.310652	1	micro_pred
COM_t474.5_v1	    138.634876	1	macro_pred
SHERW_t474.5_v1	      0.830316	1	macro_pred
Tmass_t474.5_v1	    435.358064	1	macro_pred
NF_t474.5_v1	      6.000000	1	micro_pred
fingerY_t474.5_v1	    121.327020	1	micro_pred
COM_t584_v1	    137.115071	1	macro_pred
SHERW_t584_v1	      0.783463	1	macro_pred
Tmass_t584_v1	    489.430669	1	macro_pred
NF_t584_v1	      6.000000	1	micro_pred
fingerY_t584_v1	    116.174850	1	micro_pred
COM_t693.5_v1	    135.586462	1	macro_pred
SHERW_t693.5_v1	      0.755284	1	macro_pred
Tmass_t693.5_v1	    541.003900	1	macro_pred
NF_t693.5_v1	      6.000000	1	micro_pred
fingerY_t693.5_v1	    110.848507	1	micro_pred
COM_t803_v1	    133.999118	1	macro_pred
SHERW_t803_v1	      0.738931	1	macro_pred
Tmass_t803_v1	    591.075023	1	macro_pred
NF_t803_v1	      5.000000	1	micro_pred
fingerY_t803_v1	    105.176231	1	micro_pred
COM_t912.5_v1	    132.312855	1	macro_pred
SHERW_t912.5_v1	      0.730292	1	macro_pred
Tmass_t912.5_v1	    640.290855	1	macro_pred
NF_t912.5_v1	      5.000000	1	micro_pred
fingerY_t912.5_v1	     99.185835	1	micro_pred
COM_t1022_v1	    130.498923	1	macro_pred
SHERW_t1022_v1	      0.726558	1	macro_pred
Tmass_t1022_v1	    689.070606	1	macro_pred
NF_t1022_v1	      5.000000	1	micro_pred
fingerY_t1022_v1	     92.945796	1	micro_pred
COM_t1131.5_v1	    128.542103	1	macro_pred
SHERW_t1131.5_v1	      0.725788	1	macro_pred
Tmass_t1131.5_v1	    737.677187	1	macro_pred
NF_t1131.5_v1	      4.000000	1	micro_pred
fingerY_t1131.5_v1	     86.480353	1	micro_pred
COM_t1241_v1	    126.440936	1	macro_pred
SHERW_t1241_v1	      0.726669	1	macro_pred
Tmass_t1241_v1	    786.266032	1	macro_pred
NF_t1241_v1	      4.000000	1	micro_pred
fingerY_t1241_v1	     79.864647	1	micro_pred
COM_t1350.5_v1	    124.205638	1	macro_pred
SHERW_t1350.5_v1	      0.728340	1	macro_pred
Tmass_t1350.5_v1	    834.920595	1	macro_pred
NF_t1350.5_v1	      4.000000	1	micro_pred
fingerY_t1350.5_v1	     73.149966	1	micro_pred
COM_t1460_v1	    121.855610	1	macro_pred
SHERW_t1460_v1	      0.730251	1	macro_pred
Tmass_t1460_v1	    883.677185	1	macro_pred
NF_t1460_v1	      4.000000	1	micro_pred
fingerY_t1460_v1	     66.411572	1	micro_pred
COM_t1569.5_v1	    119.413365	1	macro_pred
SHERW_t1569.5_v1	      0.732109	1	macro_pred
Tmass_t1569.5_v1	    932.543953	1	macro_pred
NF_t1569.5_v1	      4.000000	1	micro_pred
fingerY_t1569.5_v1	     59.704876	1	micro_pred
COM_t1679_v1	    116.904402	1	macro_pred
SHERW_t1679_v1	      0.733753	1	macro_pred
Tmass_t1679_v1	    981.511782	1	macro_pred
NF_t1679_v1	      4.000000	1	micro_pred
fingerY_t1679_v1	     53.089993	1	micro_pred
COM_t1898_v1	    111.795126	1	macro_pred
SHERW_t1898_v1	      0.736289	1	macro_pred
Tmass_t1898_v1	   1079.638922	1	macro_pred
NF_t1898_v1	      4.000000	1	micro_pred
fingerY_t1898_v1	     40.403912	1	micro_pred
COM_t2117_v1	    106.782001	1	macro_pred
SHERW_t2117_v1	      0.738284	1	macro_pred
Tmass_t2117_v1	   1177.399678	1	macro_pred
NF_t2117_v1	      4.000000	1	micro_pred
fingerY_t2117_v1	     28.884330	1	micro_pred
COM_t2336_v1	    102.242476	1	macro_pred
SHERW_t2336_v1	      0.740939	1	macro_pred
Tmass_t2336_v1	   1272.368939	1	macro_pred
NF_t2336_v1	      4.000000	1	micro_pred
fingerY_t2336_v1	     19.348010	1	micro_pred
COM_t2555_v1	     98.575812	1	macro_pred
SHERW_t2555_v1	      0.746236	1	macro_pred
Tmass_t2555_v1	   1360.593649	1	macro_pred
NF_t2555_v1	      4.000000	1	micro_pred
fingerY_t2555_v1	     12.992708	1	micro_pred
COM_t2774_v1	     95.874109	1	macro_pred
SHERW_t2774_v1	      0.756869	1	macro_pred
Tmass_t2774_v1	   1440.702920	1	macro_pred
NF_t2774_v1	      4.000000	1	micro_pred
fingerY_t2774_v1	     10.077802	1	micro_pred
COM_t2993_v1	     93.937489	1	macro_pred
SHERW_t2993_v1	      0.774153	1	macro_pred
Tmass_t2993_v1	   1515.151528	1	macro_pred
NF_t2993_v1	      4.000000	1	micro_pred
fingerY_t2993_v1	      9.096619	1	micro_pred
COM_t3212_v1	     92.528312	1	macro_pred
SHERW_t3212_v1	      0.793399	1	macro_pred
Tmass_t3212_v1	   1587.222397	1	macro_pred
NF_t3212_v1	      4.000000	1	micro_pred
fingerY_t3212_v1	      8.910790	1	micro_pred
COM_t3431_v1	     91.475746	1	macro_pred
SHERW_t3431_v1	      0.805981	1	macro_pred
Tmass_t3431_v1	   1658.637707	1	macro_pred
NF_t3431_v1	      4.000000	1	micro_pred
fingerY_t3431_v1	      9.048434	1	micro_pred
COM_t3650_v1	     90.650049	1	macro_pred
SHERW_t3650_v1	      0.811288	1	macro_pred
Tmass_t3650_v1	   1729.674491	1	macro_pred
NF_t3650_v1	      4.000000	1	micro_pred
fingerY_t3650_v1	      9.354116	1	micro_pred
COM_t3869_v1	     89.919170	1	macro_pred
SHERW_t3869_v1	      0.820885	1	macro_pred
Tmass_t3869_v1	   1800.969085	1	macro_pred
NF_t3869_v1	      4.000000	1	micro_pred
fingerY_t3869_v1	      9.765747	1	micro_pred
COM_t4088_v1	     89.104124	1	macro_pred
SHERW_t4088_v1	      0.845531	1	macro_pred
Tmass_t4088_v1	   1874.689195	1	macro_pred
NF_t4088_v1	      3.000000	1	micro_pred
fingerY_t4088_v1	     10.288115	1	micro_pred
COM_t4307_v1	     87.977232	1	macro_pred
SHERW_t4307_v1	      0.874034	1	macro_pred
Tmass_t4307_v1	   1952.959862	1	macro_pred
NF_t4307_v1	      2.000000	1	micro_pred
fingerY_t4307_v1	     10.992744	1	micro_pred
COM_t4526_v1	     86.436273	1	macro_pred
SHERW_t4526_v1	      0.886935	1	macro_pred
Tmass_t4526_v1	   2035.212984	1	macro_pred
NF_t4526_v1	      2.000000	1	micro_pred
fingerY_t4526_v1	     11.908037	1	micro_pred
COM_t4745_v1	     84.598538	1	macro_pred
SHERW_t4745_v1	      0.883407	1	macro_pred
Tmass_t4745_v1	   2118.997753	1	macro_pred
NF_t4745_v1	      4.000000	1	micro_pred
fingerY_t4745_v1	     13.163352	1	micro_pred
COM_t4964_v1	     82.666248	1	macro_pred
SHERW_t4964_v1	      0.871475	1	macro_pred
Tmass_t4964_v1	   2201.576910	1	macro_pred
NF_t4964_v1	      4.000000	1	micro_pred
fingerY_t4964_v1	     14.771055	1	micro_pred
COM_t5183_v1	     80.871118	1	macro_pred
SHERW_t5183_v1	      0.856700	1	macro_pred
Tmass_t5183_v1	   2279.283418	1	macro_pred
NF_t5183_v1	      4.000000	1	micro_pred
fingerY_t5183_v1	      9.809878	1	micro_pred
COM_t5402_v1	     79.473569	1	macro_pred
SHERW_t5402_v1	      0.841496	1	macro_pred
Tmass_t5402_v1	   2347.035840	1	macro_pred
NF_t5402_v1	      4.000000	1	micro_pred
fingerY_t5402_v1	      6.707371	1	micro_pred
COM_t5621_v1	     78.618503	1	macro_pred
SHERW_t5621_v1	      0.826680	1	macro_pred
Tmass_t5621_v1	   2402.040275	1	macro_pred
NF_t5621_v1	      4.000000	1	micro_pred
fingerY_t5621_v1	      5.544170	1	micro_pred
COM_t5840_v1	     78.240463	1	macro_pred
SHERW_t5840_v1	      0.812370	1	macro_pred
Tmass_t5840_v1	   2446.457881	1	macro_pred
NF_t5840_v1	      4.000000	1	micro_pred
fingerY_t5840_v1	      5.281611	1	micro_pred
COM_t6059_v1	     78.185047	1	macro_pred
SHERW_t6059_v1	      0.798386	1	macro_pred
Tmass_t6059_v1	   2484.231752	1	macro_pred
NF_t6059_v1	      4.000000	1	micro_pred
fingerY_t6059_v1	      5.321326	1	micro_pred
COM_t6278_v1	     78.316833	1	macro_pred
SHERW_t6278_v1	      0.784506	1	macro_pred
Tmass_t6278_v1	   2518.294088	1	macro_pred
NF_t6278_v1	      2.000000	1	micro_pred
fingerY_t6278_v1	      5.488505	1	micro_pred
COM_t6497_v1	     78.542165	1	macro_pred
SHERW_t6497_v1	      0.770634	1	macro_pred
Tmass_t6497_v1	   2550.211183	1	macro_pred
NF_t6497_v1	      2.000000	1	micro_pred
fingerY_t6497_v1	      5.682292	1	micro_pred
COM_t6716_v1	     78.800745	1	macro_pred
SHERW_t6716_v1	      0.756880	1	macro_pred
Tmass_t6716_v1	   2580.647946	1	macro_pred
NF_t6716_v1	      2.000000	1	micro_pred
fingerY_t6716_v1	      5.855805	1	micro_pred
COM_t6935_v1	     79.054727	1	macro_pred
SHERW_t6935_v1	      0.743545	1	macro_pred
Tmass_t6935_v1	   2609.804936	1	macro_pred
NF_t6935_v1	      2.000000	1	micro_pred
fingerY_t6935_v1	      5.988168	1	micro_pred
COM_t7154_v1	     79.281057	1	macro_pred
SHERW_t7154_v1	      0.731012	1	macro_pred
Tmass_t7154_v1	   2637.691323	1	macro_pred
NF_t7154_v1	      2.000000	1	micro_pred
fingerY_t7154_v1	      6.079658	1	micro_pred
COM_t7300_v1	     79.409813	1	macro_pred
SHERW_t7300_v1	      0.723310	1	macro_pred
Tmass_t7300_v1	   2655.558177	1	macro_pred
NF_t7300_v1	      2.000000	1	micro_pred
fingerY_t7300_v1	      6.117313	1	micro_pred
COM_t36.5_v2	    146.975963	1	macro_pred
SHERW_t36.5_v2	      2.679784	1	macro_pred
Tmass_t36.5_v2	    115.277236	1	macro_pred
NF_t36.5_v2	     13.000000	1	micro_pred
fingerY_t36.5_v2	    143.707198	1	micro_pred
COM_t146_v2	    143.962593	1	macro_pred
SHERW_t146_v2	      1.348877	1	macro_pred
Tmass_t146_v2	    233.288138	1	macro_pred
NF_t146_v2	      8.000000	1	micro_pred
fingerY_t146_v2	    136.655098	1	micro_pred
COM_t255.5_v2	    141.925493	1	macro_pred
SHERW_t255.5_v2	      1.048548	1	macro_pred
Tmass_t255.5_v2	    311.990735	1	macro_pred
NF_t255.5_v2	      7.000000	1	micro_pred
fingerY_t255.5_v2	    131.283119	1	micro_pred
COM_t365_v2	    140.208311	1	macro_pred
SHERW_t365_v2	      0.908657	1	macro_pred
Tmass_t365_v2	    377.177450	1	macro_pred
NF_t365_v2	      8.000000	1	micro_pred
fingerY_t365_v2	    126.310652	1	micro_pred
COM_t474.5_v2	    138.634876	1	macro_pred
SHERW_t474.5_v2	      0.830316	1	macro_pred
Tmass_t474.5_v2	    435.358064	1	macro_pred
NF_t474.5_v2	      6.000000	1	micro_pred
fingerY_t474.5_v2	    121.327020	1	micro_pred
COM_t584_v2	    137.115071	1	macro_pred
SHERW_t584_v2	      0.783463	1	macro_pred
Tmass_t584_v2	    489.430669	1	macro_pred
NF_t584_v2	      6.000000	1	micro_pred
fingerY_t584_v2	    116.174850	1	micro_pred
COM_t693.5_v2	    135.586462	1	macro_pred
SHERW_t693.5_v2	      0.755284	1	macro_pred
Tmass_t693.5_v2	    541.003900	1	macro_pred
NF_t693.5_v2	      6.000000	1	micro_pred
fingerY_t693.5_v2	    110.848507	1	micro_pred
COM_t803_v2	    133.999118	1	macro_pred
SHERW_t803_v2	      0.738931	1	macro_pred
Tmass_t803_v2	    591.075023	1	macro_pred
NF_t803_v2	      5.000000	1	micro_pred
fingerY_t803_v2	    105.176231	1	micro_pred
COM_t912.5_v2	    132.312855	1	macro_pred
SHERW_t912.5_v2	      0.730292	1	macro_pred
Tmass_t912.5_v2	    640.290855	1	macro_pred
NF_t912.5_v2	      5.000000	1	micro_pred
fingerY_t912.5_v2	     99.185835	1	micro_pred
COM_t1022_v2	    130.498923	1	macro_pred
SHERW_t1022_v2	      0.726558	1	macro_pred
Tmass_t1022_v2	    689.070606	1	macro_pred
NF_t1022_v2	      5.000000	1	micro_pred
fingerY_t1022_v2	     92.945796	1	micro_pred
COM_t1131.5_v2	    128.542103	1	macro_pred
SHERW_t1131.5_v2	      0.725788	1	macro_pred
Tmass_t1131.5_v2	    737.677187	1	macro_pred
NF_t1131.5_v2	      4.000000	1	micro_pred
fingerY_t1131.5_v2	     86.480353	1	micro_pred
COM_t1241_v2	    126.440936	1	macro_pred
SHERW_t1241_v2	      0.726669	1	macro_pred
Tmass_t1241_v2	    786.266032	1	macro_pred
NF_t1241_v2	      4.000000	1	micro_pred
fingerY_t1241_v2	     79.864647	1	micro_pred
COM_t1350.5_v2	    124.205638	1	macro_pred
SHERW_t1350.5_v2	      0.728340	1	macro_pred
Tmass_t1350.5_v2	    834.920595	1	macro_pred
NF_t1350.5_v2	      4.000000	1	micro_pred
fingerY_t1350.5_v2	     73.149966	1	micro_pred
COM_t1460_v2	    121.855610	1	macro_pred
SHERW_t1460_v2	      0.730251	1	macro_pred
Tmass_t1460_v2	    883.677185	1	macro_pred
NF_t1460_v2	      4.000000	1	micro_pred
fingerY_t1460_v2	     66.411572	1	micro_pred
COM_t1569.5_v2	    119.413365	1	macro_pred
SHERW_t1569.5_v2	      0.732109	1	macro_pred
Tmass_t1569.5_v2	    932.543953	1	macro_pred
NF_t1569.5_v2	      4.000000	1	micro_pred
fingerY_t1569.5_v2	     59.704876	1	micro_pred
COM_t1679_v2	    116.904402	1	macro_pred
SHERW_t1679_v2	      0.733753	1	macro_pred
Tmass_t1679_v2	    981.511782	1	macro_pred
NF_t1679_v2	      4.000000	1	micro_pred
fingerY_t1679_v2	     53.089993	1	micro_pred
COM_t1898_v2	    111.795126	1	macro_pred
SHERW_t1898_v2	      0.736289	1	macro_pred
Tmass_t1898_v2	   1079.638922	1	macro_pred
NF_t1898_v2	      4.000000	1	micro_pred
fingerY_t1898_v2	     40.403912	1	micro_pred
COM_t2117_v2	    106.782001	1	macro_pred
SHERW_t2117_v2	      0.738284	1	macro_pred
Tmass_t2117_v2	   1177.399678	1	macro_pred
NF_t2117_v2	      4.000000	1	micro_pred
fingerY_t2117_v2	     28.884330	1	micro_pred
COM_t2336_v2	    102.242476	1	macro_pred
SHERW_t2336_v2	      0.740939	1	macro_pred
Tmass_t2336_v2	   1272.368939	1	macro_pred
NF_t2336_v2	      4.000000	1	micro_pred
fingerY_t2336_v2	     19.348010	1	micro_pred
COM_t2555_v2	     98.575812	1	macro_pred
SHERW_t2555_v2	      0.746236	1	macro_pred
Tmass_t2555_v2	   1360.593649	1	macro_pred
NF_t2555_v2	      4.000000	1	micro_pred
fingerY_t2555_v2	     12.992708	1	micro_pred
COM_t2774_v2	     95.874109	1	macro_pred
SHERW_t2774_v2	      0.756869	1	macro_pred
Tmass_t2774_v2	   1440.702920	1	macro_pred
NF_t2774_v2	      4.000000	1	micro_pred
fingerY_t2774_v2	     10.077802	1	micro_pred
COM_t2993_v2	     93.937489	1	macro_pred
SHERW_t2993_v2	      0.774153	1	macro_pred
Tmass_t2993_v2	   1515.151528	1	macro_pred
NF_t2993_v2	      4.000000	1	micro_pred
fingerY_t2993_v2	      9.096619	1	micro_pred
COM_t3212_v2	     92.528312	1	macro_pred
SHERW_t3212_v2	      0.793399	1	macro_pred
Tmass_t3212_v2	   1587.222397	1	macro_pred
NF_t3212_v2	      4.000000	1	micro_pred
fingerY_t3212_v2	      8.910790	1	micro_pred
COM_t3431_v2	     91.475746	1	macro_pred
SHERW_t3431_v2	      0.805981	1	macro_pred
Tmass_t3431_v2	   1658.637707	1	macro_pred
NF_t3431_v2	      4.000000	1	micro_pred
fingerY_t3431_v2	      9.048434	1	micro_pred
COM_t3650_v2	     90.650049	1	macro_pred
SHERW_t3650_v2	      0.811288	1	macro_pred
Tmass_t3650_v2	   1729.674491	1	macro_pred
NF_t3650_v2	      4.000000	1	micro_pred
fingerY_t3650_v2	      9.354116	1	micro_pred
COM_t3869_v2	     89.919170	1	macro_pred
SHERW_t3869_v2	      0.820885	1	macro_pred
Tmass_t3869_v2	   1800.969085	1	macro_pred
NF_t3869_v2	      4.000000	1	micro_pred
fingerY_t3869_v2	      9.765747	1	micro_pred
COM_t4088_v2	     89.104124	1	macro_pred
SHERW_t4088_v2	      0.845531	1	macro_pred
Tmass_t4088_v2	   1874.689195	1	macro_pred
NF_t4088_v2	      3.000000	1	micro_pred
fingerY_t4088_v2	     10.288115	1	micro_pred
COM_t4307_v2	     87.977232	1	macro_pred
SHERW_t4307_v2	      0.874034	1	macro_pred
Tmass_t4307_v2	   1952.959862	1	macro_pred
NF_t4307_v2	      2.000000	1	micro_pred
fingerY_t4307_v2	     10.992744	1	micro_pred
COM_t4526_v2	     86.436273	1	macro_pred
SHERW_t4526_v2	      0.886935	1	macro_pred
Tmass_t4526_v2	   2035.212984	1	macro_pred
NF_t4526_v2	      2.000000	1	micro_pred
fingerY_t4526_v2	     11.908037	1	micro_pred
COM_t4745_v2	     84.598538	1	macro_pred
SHERW_t4745_v2	      0.883407	1	macro_pred
Tmass_t4745_v2	   2118.997753	1	macro_pred
NF_t4745_v2	      4.000000	1	micro_pred
fingerY_t4745_v2	     13.163352	1	micro_pred
COM_t4964_v2	     82.666248	1	macro_pred
SHERW_t4964_v2	      0.871475	1	macro_pred
Tmass_t4964_v2	   2201.576910	1	macro_pred
NF_t4964_v2	      4.000000	1	micro_pred
fingerY_t4964_v2	     14.771055	1	micro_pred
COM_t5183_v2	     80.871118	1	macro_pred
SHERW_t5183_v2	      0.856700	1	macro_pred
Tmass_t5183_v2	   2279.283418	1	macro_pred
NF_t5183_v2	      4.000000	1	micro_pred
fingerY_t5183_v2	      9.809878	1	micro_pred
COM_t5402_v2	     79.473569	1	macro_pred
SHERW_t5402_v2	      0.841496	1	macro_pred
Tmass_t5402_v2	   2347.035840	1	macro_pred
NF_t5402_v2	      4.000000	1	micro_pred
fingerY_t5402_v2	      6.707371	1	micro_pred
COM_t5621_v2	     78.618503	1	macro_pred
SHERW_t5621_v2	      0.826680	1	macro_pred
Tmass_t5621_v2	   2402.040275	1	macro_pred
NF_t5621_v2	      4.000000	1	micro_pred
fingerY_t5621_v2	      5.544170	1	micro_pred
COM_t5840_v2	     78.240463	1	macro_pred
SHERW_t5840_v2	      0.812370	1	macro_pred
Tmass_t5840_v2	   2446.457881	1	macro_pred
NF_t5840_v2	      4.000000	1	micro_pred
fingerY_t5840_v2	      5.281611	1	micro_pred
COM_t6059_v2	     78.185047	1	macro_pred
SHERW_t6059_v2	      0.798386	1	macro_pred
Tmass_t6059_v2	   2484.231752	1	macro_pred
NF_t6059_v2	      4.000000	1	micro_pred
fingerY_t6059_v2	      5.321326	1	micro_pred
COM_t6278_v2	     78.316833	1	macro_pred
SHERW_t6278_v2	      0.784506	1	macro_pred
Tmass_t6278_v2	   2518.294088	1	macro_pred
NF_t6278_v2	      2.000000	1	micro_pred
fingerY_t6278_v2	      5.488505	1	micro_pred
COM_t6497_v2	     78.542165	1	macro_pred
SHERW_t6497_v2	      0.770634	1	macro_pred
Tmass_t6497_v2	   2550.211183	1	macro_pred
NF_t6497_v2	      2.000000	1	micro_pred
fingerY_t6497_v2	      5.682292	1	micro_pred
COM_t6716_v2	     78.800745	1	macro_pred
SHERW_t6716_v2	      0.756880	1	macro_pred
Tmass_t6716_v2	   2580.647946	1	macro_pred
NF_t6716_v2	      2.000000	1	micro_pred
fingerY_t6716_v2	      5.855805	1	micro_pred
COM_t6935_v2	     79.054727	1	macro_pred
SHERW_t6935_v2	      0.743545	1	macro_pred
Tmass_t6935_v2	   2609.804936	1	macro_pred
NF_t6935_v2	      2.000000	1	micro_pred
fingerY_t6935_v2	      5.988168	1	micro_pred
COM_t7154_v2	     79.281057	1	macro_pred
SHERW_t7154_v2	      0.731012	1	macro_pred
Tmass_t7154_v2	   2637.691323	1	macro_pred
NF_t7154_v2	      2.000000	1	micro_pred
fingerY_t7154_v2	      6.079658	1	micro_pred
COM_t7300_v2	     79.409813	1	macro_pred
SHERW_t7300_v2	      0.723310	1	macro_pred
Tmass_t7300_v2	   2655.558177	1	macro_pred
NF_t7300_v2	      2.000000	1	micro_pred
fingerY_t7300_v2	      6.117313	1	micro_pred
COM_t36.5_v3	    146.975963	1	macro_pred
SHERW_t36.5_v3	      2.679784	1	macro_pred
Tmass_t36.5_v3	    115.277236	1	macro_pred
NF_t36.5_v3	     13.000000	1	micro_pred
fingerY_t36.5_v3	    143.707198	1	micro_pred
COM_t146_v3	    143.962593	1	macro_pred
SHERW_t146_v3	      1.348877	1	macro_pred
Tmass_t146_v3	    233.288138	1	macro_pred
NF_t146_v3	      8.000000	1	micro_pred
fingerY_t146_v3	    136.655098	1	micro_pred
COM_t255.5_v3	    141.925493	1	macro_pred
SHERW_t255.5_v3	      1.048548	1	macro_pred
Tmass_t255.5_v3	    311.990735	1	macro_pred
NF_t255.5_v3	      7.000000	1	micro_pred
fingerY_t255.5_v3	    131.283119	1	micro_pred
COM_t365_v3	    140.208311	1	macro_pred
SHERW_t365_v3	      0.908657	1	macro_pred
Tmass_t365_v3	    377.177450	1	macro_pred
NF_t365_v3	      8.000000	1	micro_pred
fingerY_t365_v3	    126.310652	1	micro_pred
COM_t474.5_v3	    138.634876	1	macro_pred
SHERW_t474.5_v3	      0.830316	1	macro_pred
Tmass_t474.5_v3	    435.358064	1	macro_pred
NF_t474.5_v3	      6.000000	1	micro_pred
fingerY_t474.5_v3	    121.327020	1	micro_pred
COM_t584_v3	    137.115071	1	macro_pred
SHERW_t584_v3	      0.783463	1	macro_pred
Tmass_t584_v3	    489.430669	1	macro_pred
NF_t584_v3	      6.000000	1	micro_pred
fingerY_t584_v3	    116.174850	1	micro_pred
COM_t693.5_v3	    135.586462	1	macro_pred
SHERW_t693.5_v3	      0.755284	1	macro_pred
Tmass_t693.5_v3	    541.003900	1	macro_pred
NF_t693.5_v3	      6.000000	1	micro_pred
fingerY_t693.5_v3	    110.848507	1	micro_pred
COM_t803_v3	    133.999118	1	macro_pred
SHERW_t803_v3	      0.738931	1	macro_pred
Tmass_t803_v3	    591.075023	1	macro_pred
NF_t803_v3	      5.000000	1	micro_pred
fingerY_t803_v3	    105.176231	1	micro_pred
COM_t912.5_v3	    132.312855	1	macro_pred
SHERW_t912.5_v3	      0.730292	1	macro_pred
Tmass_t912.5_v3	    640.290855	1	macro_pred
NF_t912.5_v3	      5.000000	1	micro_pred
fingerY_t912.5_v3	     99.185835	1	micro_pred
COM_t1022_v3	    130.498923	1	macro_pred
SHERW_t1022_v3	      0.726558	1	macro_pred
Tmass_t1022_v3	    689.070606	1	macro_pred
NF_t1022_v3	      5.000000	1	micro_pred
fingerY_t1022_v3	     92.945796	1	micro_pred
COM_t1131.5_v3	    128.542103	1	macro_pred
SHERW_t1131.5_v3	      0.725788	1	macro_pred
Tmass_t1131.5_v3	    737.677187	1	macro_pred
NF_t1131.5_v3	      4.000000	1	micro_pred
fingerY_t1131.5_v3	     86.480353	1	micro_pred
COM_t1241_v3	    126.440936	1	macro_pred
SHERW_t1241_v3	      0.726669	1	macro_pred
Tmass_t1241_v3	    786.266032	1	macro_pred
NF_t1241_v3	      4.000000	1	micro_pred
fingerY_t1241_v3	     79.864647	1	micro_pred
COM_t1350.5_v3	    124.205638	1	macro_pred
SHERW_t1350.5_v3	      0.728340	1	macro_pred
Tmass_t1350.5_v3	    834.920595	1	macro_pred
NF_t1350.5_v3	      4.000000	1	micro_pred
fingerY_t1350.5_v3	     73.149966	1	micro_pred
COM_t1460_v3	    121.855610	1	macro_pred
SHERW_t1460_v3	      0.730251	1	macro_pred
Tmass_t1460_v3	    883.677185	1	macro_pred
NF_t1460_v3	      4.000000	1	micro_pred
fingerY_t1460_v3	     66.411572	1	micro_pred
COM_t1569.5_v3	    119.413365	1	macro_pred
SHERW_t1569.5_v3	      0.732109	1	macro_pred
Tmass_t1569.5_v3	    932.543953	1	macro_pred
NF_t1569.5_v3	      4.000000	1	micro_pred
fingerY_t1569.5_v3	     59.704876	1	micro_pred
COM_t1679_v3	    116.904402	1	macro_pred
SHERW_t1679_v3	      0.733753	1	macro_pred
Tmass_t1679_v3	    981.511782	1	macro_pred
NF_t1679_v3	      4.000000	1	micro_pred
fingerY_t1679_v3	     53.089993	1	micro_pred
COM_t1898_v3	    111.795126	1	macro_pred
SHERW_t1898_v3	      0.736289	1	macro_pred
Tmass_t1898_v3	   1079.638922	1	macro_pred
NF_t1898_v3	      4.000000	1	micro_pred
fingerY_t1898_v3	     40.403912	1	micro_pred
COM_t2117_v3	    106.782001	1	macro_pred
SHERW_t2117_v3	      0.738284	1	macro_pred
Tmass_t2117_v3	   1177.399678	1	macro_pred
NF_t2117_v3	      4.000000	1	micro_pred
fingerY_t2117_v3	     28.884330	1	micro_pred
COM_t2336_v3	    102.242476	1	macro_pred
SHERW_t2336_v3	      0.740939	1	macro_pred
Tmass_t2336_v3	   1272.368939	1	macro_pred
NF_t2336_v3	      4.000000	1	micro_pred
fingerY_t2336_v3	     19.348010	1	micro_pred
COM_t2555_v3	     98.575812	1	macro_pred
SHERW_t2555_v3	      0.746236	1	macro_pred
Tmass_t2555_v3	   1360.593649	1	macro_pred
NF_t2555_v3	      4.000000	1	micro_pred
fingerY_t2555_v3	     12.992708	1	micro_pred
COM_t2774_v3	     95.874109	1	macro_pred
SHERW_t2774_v3	      0.756869	1	macro_pred
Tmass_t2774_v3	   1440.702920	1	macro_pred
NF_t2774_v3	      4.000000	1	micro_pred
fingerY_t2774_v3	     10.077802	1	micro_pred
COM_t2993_v3	     93.937489	1	macro_pred
SHERW_t2993_v3	      0.774153	1	macro_pred
Tmass_t2993_v3	   1515.151528	1	macro_pred
NF_t2993_v3	      4.000000	1	micro_pred
fingerY_t2993_v3	      9.096619	1	micro_pred
COM_t3212_v3	     92.528312	1	macro_pred
SHERW_t3212_v3	      0.793399	1	macro_pred
Tmass_t3212_v3	   1587.222397	1	macro_pred
NF_t3212_v3	      4.000000	1	micro_pred
fingerY_t3212_v3	      8.910790	1	micro_pred
COM_t3431_v3	     91.475746	1	macro_pred
SHERW_t3431_v3	      0.805981	1	macro_pred
Tmass_t3431_v3	   1658.637707	1	macro_pred
NF_t3431_v3	      4.000000	1	micro_pred
fingerY_t3431_v3	      9.048434	1	micro_pred
COM_t3650_v3	     90.650049	1	macro_pred
SHERW_t3650_v3	      0.811288	1	macro_pred
Tmass_t3650_v3	   1729.674491	1	macro_pred
NF_t3650_v3	      4.000000	1	micro_pred
fingerY_t3650_v3	      9.354116	1	micro_pred
COM_t3869_v3	     89.919170	1	macro_pred
SHERW_t3869_v3	      0.820885	1	macro_pred
Tmass_t3869_v3	   1800.969085	1	macro_pred
NF_t3869_v3	      4.000000	1	micro_pred
fingerY_t3869_v3	      9.765747	1	micro_pred
COM_t4088_v3	     89.104124	1	macro_pred
SHERW_t4088_v3	      0.845531	1	macro_pred
Tmass_t4088_v3	   1874.689195	1	macro_pred
NF_t4088_v3	      3.000000	1	micro_pred
fingerY_t4088_v3	     10.288115	1	micro_pred
COM_t4307_v3	     87.977232	1	macro_pred
SHERW_t4307_v3	      0.874034	1	macro_pred
Tmass_t4307_v3	   1952.959862	1	macro_pred
NF_t4307_v3	      2.000000	1	micro_pred
fingerY_t4307_v3	     10.992744	1	micro_pred
COM_t4526_v3	     86.436273	1	macro_pred
SHERW_t4526_v3	      0.886935	1	macro_pred
Tmass_t4526_v3	   2035.212984	1	macro_pred
NF_t4526_v3	      2.000000	1	micro_pred
fingerY_t4526_v3	     11.908037	1	micro_pred
COM_t4745_v3	     84.598538	1	macro_pred
SHERW_t4745_v3	      0.883407	1	macro_pred
Tmass_t4745_v3	   2118.997753	1	macro_pred
NF_t4745_v3	      4.000000	1	micro_pred
fingerY_t4745_v3	     13.163352	1	micro_pred
COM_t4964_v3	     82.666248	1	macro_pred
SHERW_t4964_v3	      0.871475	1	macro_pred
Tmass_t4964_v3	   2201.576910	1	macro_pred
NF_t4964_v3	      4.000000	1	micro_pred
fingerY_t4964_v3	     14.771055	1	micro_pred
COM_t5183_v3	     80.871118	1	macro_pred
SHERW_t5183_v3	      0.856700	1	macro_pred
Tmass_t5183_v3	   2279.283418	1	macro_pred
NF_t5183_v3	      4.000000	1	micro_pred
fingerY_t5183_v3	      9.809878	1	micro_pred
COM_t5402_v3	     79.473569	1	macro_pred
SHERW_t5402_v3	      0.841496	1	macro_pred
Tmass_t5402_v3	   2347.035840	1	macro_pred
NF_t5402_v3	      4.000000	1	micro_pred
fingerY_t5402_v3	      6.707371	1	micro_pred
COM_t5621_v3	     78.618503	1	macro_pred
SHERW_t5621_v3	      0.826680	1	macro_pred
Tmass_t5621_v3	   2402.040275	1	macro_pred
NF_t5621_v3	      4.000000	1	micro_pred
fingerY_t5621_v3	      5.544170	1	micro_pred
COM_t5840_v3	     78.240463	1	macro_pred
SHERW_t5840_v3	      0.812370	1	macro_pred
Tmass_t5840_v3	   2446.457881	1	macro_pred
NF_t5840_v3	      4.000000	1	micro_pred
fingerY_t5840_v3	      5.281611	1	micro_pred
COM_t6059_v3	     78.185047	1	macro_pred
SHERW_t6059_v3	      0.798386	1	macro_pred
Tmass_t6059_v3	   2484.231752	1	macro_pred
NF_t6059_v3	      4.000000	1	micro_pred
fingerY_t6059_v3	      5.321326	1	micro_pred
COM_t6278_v3	     78.316833	1	macro_pred
SHERW_t6278_v3	      0.784506	1	macro_pred
Tmass_t6278_v3	   2518.294088	1	macro_pred
NF_t6278_v3	      2.000000	1	micro_pred
fingerY_t6278_v3	      5.488505	1	micro_pred
COM_t6497_v3	     78.542165	1	macro_pred
SHERW_t6497_v3	      0.770634	1	macro_pred
Tmass_t6497_v3	   2550.211183	1	macro_pred
NF_t6497_v3	      2.000000	1	micro_pred
fingerY_t6497_v3	      5.682292	1	micro_pred
COM_t6716_v3	     78.800745	1	macro_pred
SHERW_t6716_v3	      0.756880	1	macro_pred
Tmass_t6716_v3	   2580.647946	1	macro_pred
NF_t6716_v3	      2.000000	1	micro_pred
fingerY_t6716_v3	      5.855805	1	micro_pred
COM_t6935_v3	     79.054727	1	macro_pred
SHERW_t6935_v3	      0.743545	1	macro_pred
Tmass_t6935_v3	   2609.804936	1	macro_pred
NF_t6935_v3	      2.000000	1	micro_pred
fingerY_t6935_v3	      5.988168	1	micro_pred
COM_t7154_v3	     79.281057	1	macro_pred
SHERW_t7154_v3	      0.731012	1	macro_pred
Tmass_t7154_v3	   2637.691323	1	macro_pred
NF_t7154_v3	      2.000000	1	micro_pred
fingerY_t7154_v3	      6.079658	1	micro_pred
COM_t7300_v3	     79.409813	1	macro_pred
SHERW_t7300_v3	      0.723310	1	macro_pred
Tmass_t7300_v3	   2655.558177	1	macro_pred
NF_t7300_v3	      2.000000	1	micro_pred
fingerY_t7300_v3	      6.117313	1	micro_pred
COM_t36.5_v4	    146.975963	1	macro_pred
SHERW_t36.5_v4	      2.679784	1	macro_pred
Tmass_t36.5_v4	    115.277236	1	macro_pred
NF_t36.5_v4	     13.000000	1	micro_pred
fingerY_t36.5_v4	    143.707198	1	micro_pred
COM_t146_v4	    143.962593	1	macro_pred
SHERW_t146_v4	      1.348877	1	macro_pred
Tmass_t146_v4	    233.288138	1	macro_pred
NF_t146_v4	      8.000000	1	micro_pred
fingerY_t146_v4	    136.655098	1	micro_pred
COM_t255.5_v4	    141.925493	1	macro_pred
SHERW_t255.5_v4	      1.048548	1	macro_pred
Tmass_t255.5_v4	    311.990735	1	macro_pred
NF_t255.5_v4	      7.000000	1	micro_pred
fingerY_t255.5_v4	    131.283119	1	micro_pred
COM_t365_v4	    140.208311	1	macro_pred
SHERW_t365_v4	      0.908657	1	macro_pred
Tmass_t365_v4	    377.177450	1	macro_pred
NF_t365_v4	      8.000000	1	micro_pred
fingerY_t365_v4	    126.310652	1	micro_pred
COM_t474.5_v4	    138.634876	1	macro_pred
SHERW_t474.5_v4	      0.830316	1	macro_pred
Tmass_t474.5_v4	    435.358064	1	macro_pred
NF_t474.5_v4	      6.000000	1	micro_pred