pcf
* control data
restart regularisation
   2808  13001      6    4940     12
    6     2 single point   1   0   0
  5.0  -3.0   0.3  0.03    10
 20.0  20.0 0.001  0
  0.1
   70  0.01     3     3  0.01     3
    1     1     1
* singular value decomposition
         1
      2600     5E-07
         0
* parameter groups
HK     relative 0.015  0.0  switch  2.0 parabolic
ANIZ   relative 0.015  0.0  switch  2.0 parabolic
HTR    relative 0.015  0.0  switch  2.0 parabolic
HTS    relative 0.015  0.0  switch  2.0 parabolic
ALFA   relative 0.015  0.0  switch  2.0 parabolic
THET   relative 0.015  0.0  switch  2.0 parabolic
* parameter data
hk_001          fixed  factor    999999.0      0.0000000e+00       99999999     hk      1.0000      0.0000   1
hk_002          fixed  factor    999999.0      0.0000000e+00       99999999     hk      1.0000      0.0000   1
hk_003          fixed  factor    999999.0      0.0000000e+00       99999999     hk      1.0000      0.0000   1
hk_004          fixed  factor    999999.0      0.0000000e+00       99999999     hk      1.0000      0.0000   1
hk_005          fixed  factor    999999.0      0.0000000e+00       99999999     hk      1.0000      0.0000   1
hk_006          fixed  factor    999999.0      0.0000000e+00       99999999     hk      1.0000      0.0000   1
hk_007          fixed  factor    999999.0      0.0000000e+00       99999999     hk      1.0000      0.0000   1
hk_008          fixed  factor    999999.0      0.0000000e+00       99999999     hk      1.0000      0.0000   1
hk_009          fixed  factor    999999.0      0.0000000e+00       99999999     hk      1.0000      0.0000   1
hk_010          fixed  factor    999999.0      0.0000000e+00       99999999     hk      1.0000      0.0000   1
hk_011          fixed  factor    999999.0      0.0000000e+00       99999999     hk      1.0000      0.0000   1
hk_012          fixed  factor    999999.0      0.0000000e+00       99999999     hk      1.0000      0.0000   1
hk_013          fixed  factor    999999.0      0.0000000e+00       99999999     hk      1.0000      0.0000   1
hk_014          fixed  factor    999999.0      0.0000000e+00       99999999     hk      1.0000      0.0000   1
hk_015          fixed  factor    999999.0      0.0000000e+00       99999999     hk      1.0000      0.0000   1
hk_016          fixed  factor    999999.0      0.0000000e+00       99999999     hk      1.0000      0.0000   1
hk_017          fixed  factor    999999.0      0.0000000e+00       99999999     hk      1.0000      0.0000   1
hk_018          fixed  factor    999999.0      0.0000000e+00       99999999     hk      1.0000      0.0000   1
hk_019          fixed  factor    999999.0      0.0000000e+00       99999999     hk      1.0000      0.0000   1
hk_020          fixed  factor    999999.0      0.0000000e+00       99999999     hk      1.0000      0.0000   1
hk_021          fixed  factor    999999.0      0.0000000e+00       99999999     hk      1.0000      0.0000   1
hk_022          fixed  factor    999999.0      0.0000000e+00       99999999     hk      1.0000      0.0000   1
hk_023          fixed  factor    999999.0      0.0000000e+00       99999999     hk      1.0000      0.0000   1
hk_024          fixed  factor    999999.0      0.0000000e+00       99999999     hk      1.0000      0.0000   1
hk_025          fixed  factor    999999.0      0.0000000e+00       99999999     hk      1.0000      0.0000   1
hk_026          fixed  factor    999999.0      0.0000000e+00       99999999     hk      1.0000      0.0000   1
hk_027          fixed  factor    999999.0      0.0000000e+00       99999999     hk      1.0000      0.0000   1
hk_028          fixed  factor    999999.0      0.0000000e+00       99999999     hk      1.0000      0.0000   1
hk_029          fixed  factor    999999.0      0.0000000e+00       99999999     hk      1.0000      0.0000   1
hk_030          fixed  factor    999999.0      0.0000000e+00       99999999     hk      1.0000      0.0000   1
hk_031          fixed  factor    999999.0      0.0000000e+00       99999999     hk      1.0000      0.0000   1
hk_032          fixed  factor    999999.0      0.0000000e+00       99999999     hk      1.0000      0.0000   1
hk_033          fixed  factor    999999.0      0.0000000e+00       99999999     hk      1.0000      0.0000   1
hk_034          fixed  factor    999999.0      0.0000000e+00       99999999     hk      1.0000      0.0000   1
hk_035          fixed  factor    999999.0      0.0000000e+00       99999999     hk      1.0000      0.0000   1
hk_036          fixed  factor    999999.0      0.0000000e+00       99999999     hk      1.0000      0.0000   1
hk_037          fixed  factor    999999.0      0.0000000e+00       99999999     hk      1.0000      0.0000   1
hk_038          fixed  factor    999999.0      0.0000000e+00       99999999     hk      1.0000      0.0000   1
hk_039          fixed  factor    999999.0      0.0000000e+00       99999999     hk      1.0000      0.0000   1
hk_040          fixed  factor    999999.0      0.0000000e+00       99999999     hk      1.0000      0.0000   1
hk_041          fixed  factor    999999.0      0.0000000e+00       99999999     hk      1.0000      0.0000   1
hk_042          fixed  factor    999999.0      0.0000000e+00       99999999     hk      1.0000      0.0000   1
hk_043          fixed  factor    999999.0      0.0000000e+00       99999999     hk      1.0000      0.0000   1
hk_044          fixed  factor    999999.0      0.0000000e+00       99999999     hk      1.0000      0.0000   1
hk_045          fixed  factor    999999.0      0.0000000e+00       99999999     hk      1.0000      0.0000   1
hk_046          fixed  factor    999999.0      0.0000000e+00       99999999     hk      1.0000      0.0000   1
hk_047          fixed  factor    999999.0      0.0000000e+00       99999999     hk      1.0000      0.0000   1
hk_048          fixed  factor    999999.0      0.0000000e+00       99999999     hk      1.0000      0.0000   1
hk_049          fixed  factor    999999.0      0.0000000e+00       99999999     hk      1.0000      0.0000   1
hk_050          fixed  factor    999999.0      0.0000000e+00       99999999     hk      1.0000      0.0000   1
hk_051          fixed  factor    999999.0      0.0000000e+00       99999999     hk      1.0000      0.0000   1
hk_052          fixed  factor    999999.0      0.0000000e+00       99999999     hk      1.0000      0.0000   1
hk_053          fixed  factor    999999.0      0.0000000e+00       99999999     hk      1.0000      0.0000   1
hk_054          fixed  factor    999999.0      0.0000000e+00       99999999     hk      1.0000      0.0000   1
hk_055          fixed  factor    999999.0      0.0000000e+00       99999999     hk      1.0000      0.0000   1
hk_056          fixed  factor    999999.0      0.0000000e+00       99999999     hk      1.0000      0.0000   1
hk_057          fixed  factor    999999.0      0.0000000e+00       99999999     hk      1.0000      0.0000   1
hk_058          fixed  factor    999999.0      0.0000000e+00       99999999     hk      1.0000      0.0000   1
hk_059          fixed  factor    999999.0      0.0000000e+00       99999999     hk      1.0000      0.0000   1
hk_060          fixed  factor    999999.0      0.0000000e+00       99999999     hk      1.0000      0.0000   1
hk_061          fixed  factor    999999.0      0.0000000e+00       99999999     hk      1.0000      0.0000   1
hk_062          fixed  factor    999999.0      0.0000000e+00       99999999     hk      1.0000      0.0000   1
hk_063          fixed  factor    999999.0      0.0000000e+00       99999999     hk      1.0000      0.0000   1
hk_064          fixed  factor    999999.0      0.0000000e+00       99999999     hk      1.0000      0.0000   1
hk_065          fixed  factor    999999.0      0.0000000e+00       99999999     hk      1.0000      0.0000   1
hk_066          fixed  factor    999999.0      0.0000000e+00       99999999     hk      1.0000      0.0000   1
hk_067          fixed  factor    999999.0      0.0000000e+00       99999999     hk      1.0000      0.0000   1
hk_068          fixed  factor    999999.0      0.0000000e+00       99999999     hk      1.0000      0.0000   1
hk_069          fixed  factor    999999.0      0.0000000e+00       99999999     hk      1.0000      0.0000   1
hk_070          fixed  factor    999999.0      0.0000000e+00       99999999     hk      1.0000      0.0000   1
hk_071          fixed  factor    999999.0      0.0000000e+00       99999999     hk      1.0000      0.0000   1
hk_072          fixed  factor    999999.0      0.0000000e+00       99999999     hk      1.0000      0.0000   1
hk_073          fixed  factor    999999.0      0.0000000e+00       99999999     hk      1.0000      0.0000   1
hk_074          fixed  factor    999999.0      0.0000000e+00       99999999     hk      1.0000      0.0000   1
hk_075          fixed  factor    999999.0      0.0000000e+00       99999999     hk      1.0000      0.0000   1
hk_076          fixed  factor    999999.0      0.0000000e+00       99999999     hk      1.0000      0.0000   1
hk_077          fixed  factor    999999.0      0.0000000e+00       99999999     hk      1.0000      0.0000   1
hk_078          fixed  factor    999999.0      0.0000000e+00       99999999     hk      1.0000      0.0000   1
hk_079          fixed  factor    999999.0      0.0000000e+00       99999999     hk      1.0000      0.0000   1
hk_080          fixed  factor    999999.0      0.0000000e+00       99999999     hk      1.0000      0.0000   1
hk_081          fixed  factor    999999.0      0.0000000e+00       99999999     hk      1.0000      0.0000   1
hk_082          fixed  factor    999999.0      0.0000000e+00       99999999     hk      1.0000      0.0000   1
hk_083          fixed  factor    999999.0      0.0000000e+00       99999999     hk      1.0000      0.0000   1
hk_084          fixed  factor    999999.0      0.0000000e+00       99999999     hk      1.0000      0.0000   1
hk_085          fixed  factor    999999.0      0.0000000e+00       99999999     hk      1.0000      0.0000   1
hk_086            log  factor   0.9746664      1.0000000e-05  2.0100000e+01     hk      1.0000      0.0000   1
hk_087            log  factor    1.096608      1.0000000e-05  2.0100000e+01     hk      1.0000      0.0000   1
hk_088            log  factor    1.131383      1.0000000e-05  2.0100000e+01     hk      1.0000      0.0000   1
hk_089            log  factor    1.846852      1.0000000e-05  2.0100000e+01     hk      1.0000      0.0000   1
hk_090            log  factor    1.509342      1.0000000e-05  2.0100000e+01     hk      1.0000      0.0000   1
hk_091            log  factor   1.3986344E-02  1.0000000e-05  2.0100000e+01     hk      1.0000      0.0000   1
hk_092          fixed  factor    999999.0      0.0000000e+00       99999999     hk      1.0000      0.0000   1
hk_093          fixed  factor    999999.0      0.0000000e+00       99999999     hk      1.0000      0.0000   1
hk_094          fixed  factor    999999.0      0.0000000e+00       99999999     hk      1.0000      0.0000   1
hk_095          fixed  factor    999999.0      0.0000000e+00       99999999     hk      1.0000      0.0000   1
hk_096          fixed  factor    999999.0      0.0000000e+00       99999999     hk      1.0000      0.0000   1
hk_097          fixed  factor    999999.0      0.0000000e+00       99999999     hk      1.0000      0.0000   1
hk_098          fixed  factor    999999.0      0.0000000e+00       99999999     hk      1.0000      0.0000   1
hk_099          fixed  factor    999999.0      0.0000000e+00       99999999     hk      1.0000      0.0000   1
hk_100          fixed  factor    999999.0      0.0000000e+00       99999999     hk      1.0000      0.0000   1
hk_101          fixed  factor    999999.0      0.0000000e+00       99999999     hk      1.0000      0.0000   1
hk_102          fixed  factor    999999.0      0.0000000e+00       99999999     hk      1.0000      0.0000   1
hk_103            log  factor    1.506093      1.0000000e-05  2.0100000e+01     hk      1.0000      0.0000   1
hk_104            log  factor    1.113009      1.0000000e-05  2.0100000e+01     hk      1.0000      0.0000   1
hk_105            log  factor    1.297847      1.0000000e-05  2.0100000e+01     hk      1.0000      0.0000   1
hk_106            log  factor   0.9887824      1.0000000e-05  2.0100000e+01     hk      1.0000      0.0000   1
hk_107            log  factor    1.338116      1.0000000e-05  2.0100000e+01     hk      1.0000      0.0000   1
hk_108            log  factor    1.305594      1.0000000e-05  2.0100000e+01     hk      1.0000      0.0000   1
hk_109            log  factor   1.5516408E-02  1.0000000e-05  2.0100000e+01     hk      1.0000      0.0000   1
hk_110          fixed  factor    999999.0      0.0000000e+00       99999999     hk      1.0000      0.0000   1
hk_111          fixed  factor    999999.0      0.0000000e+00       99999999     hk      1.0000      0.0000   1
hk_112            log  factor   9.2679570E-03  1.0000000e-05  2.0100000e+01     hk      1.0000      0.0000   1
hk_113            log  factor   9.1737896E-03  1.0000000e-05  2.0100000e+01     hk      1.0000      0.0000   1
hk_114          fixed  factor    999999.0      0.0000000e+00       99999999     hk      1.0000      0.0000   1
hk_115          fixed  factor    999999.0      0.0000000e+00       99999999     hk      1.0000      0.0000   1
hk_116          fixed  factor    999999.0      0.0000000e+00       99999999     hk      1.0000      0.0000   1
hk_117          fixed  factor    999999.0      0.0000000e+00       99999999     hk      1.0000      0.0000   1
hk_118          fixed  factor    999999.0      0.0000000e+00       99999999     hk      1.0000      0.0000   1
hk_119          fixed  factor    999999.0      0.0000000e+00       99999999     hk      1.0000      0.0000   1
hk_120          fixed  factor    999999.0      0.0000000e+00       99999999     hk      1.0000      0.0000   1
hk_121            log  factor    1.281394      1.0000000e-05  2.0100000e+01     hk      1.0000      0.0000   1
hk_122            log  factor    1.355353      1.0000000e-05  2.0100000e+01     hk      1.0000      0.0000   1
hk_123            log  factor    1.391499      1.0000000e-05  2.0100000e+01     hk      1.0000      0.0000   1
hk_124            log  factor    1.256664      1.0000000e-05  2.0100000e+01     hk      1.0000      0.0000   1
hk_125            log  factor    1.368989      1.0000000e-05  2.0100000e+01     hk      1.0000      0.0000   1
hk_126            log  factor    1.419754      1.0000000e-05  2.0100000e+01     hk      1.0000      0.0000   1
hk_127            log  factor   1.6463395E-02  1.0000000e-05  2.0100000e+01     hk      1.0000      0.0000   1
hk_128            log  factor   1.9238018E-02  1.0000000e-05  2.0100000e+01     hk      1.0000      0.0000   1
hk_129            log  factor   1.3769168E-02  1.0000000e-05  2.0100000e+01     hk      1.0000      0.0000   1
hk_130            log  factor   1.3807820E-02  1.0000000e-05  2.0100000e+01     hk      1.0000      0.0000   1
hk_131            log  factor   2.4783075E-02  1.0000000e-05  2.0100000e+01     hk      1.0000      0.0000   1
hk_132            log  factor   2.3735510E-02  1.0000000e-05  2.0100000e+01     hk      1.0000      0.0000   1
hk_133          fixed  factor    999999.0      0.0000000e+00       99999999     hk      1.0000      0.0000   1
hk_134          fixed  factor    999999.0      0.0000000e+00       99999999     hk      1.0000      0.0000   1
hk_135          fixed  factor    999999.0      0.0000000e+00       99999999     hk      1.0000      0.0000   1
hk_136          fixed  factor    999999.0      0.0000000e+00       99999999     hk      1.0000      0.0000   1
hk_137          fixed  factor    999999.0      0.0000000e+00       99999999     hk      1.0000      0.0000   1
hk_138          fixed  factor    999999.0      0.0000000e+00       99999999     hk      1.0000      0.0000   1
hk_139            log  factor    1.606453      1.0000000e-05  2.0100000e+01     hk      1.0000      0.0000   1
hk_140            log  factor    1.216251      1.0000000e-05  2.0100000e+01     hk      1.0000      0.0000   1
hk_141            log  factor    1.552187      1.0000000e-05  2.0100000e+01     hk      1.0000      0.0000   1
hk_142            log  factor    1.283952      1.0000000e-05  2.0100000e+01     hk      1.0000      0.0000   1
hk_143            log  factor    1.223609      1.0000000e-05  2.0100000e+01     hk      1.0000      0.0000   1
hk_144            log  factor    1.307826      1.0000000e-05  2.0100000e+01     hk      1.0000      0.0000   1
hk_145            log  factor   1.4921757E-02  1.0000000e-05  2.0100000e+01     hk      1.0000      0.0000   1
hk_146            log  factor   1.3317226E-02  1.0000000e-05  2.0100000e+01     hk      1.0000      0.0000   1
hk_147            log  factor   9.5933156E-03  1.0000000e-05  2.0100000e+01     hk      1.0000      0.0000   1
hk_148            log  factor   1.2121256E-02  1.0000000e-05  2.0100000e+01     hk      1.0000      0.0000   1
hk_149            log  factor   2.1533649E-02  1.0000000e-05  2.0100000e+01     hk      1.0000      0.0000   1
hk_150            log  factor   5.9538575E-03  1.0000000e-05  2.0100000e+01     hk      1.0000      0.0000   1
hk_151          fixed  factor    999999.0      0.0000000e+00       99999999     hk      1.0000      0.0000   1
hk_152          fixed  factor    999999.0      0.0000000e+00       99999999     hk      1.0000      0.0000   1
hk_153          fixed  factor    999999.0      0.0000000e+00       99999999     hk      1.0000      0.0000   1
hk_154          fixed  factor    999999.0      0.0000000e+00       99999999     hk      1.0000      0.0000   1
hk_155          fixed  factor    999999.0      0.0000000e+00       99999999     hk      1.0000      0.0000   1
hk_156            log  factor   0.2278415      1.0000000e-05  2.0100000e+01     hk      1.0000      0.0000   1
hk_157            log  factor   0.8677263      1.0000000e-05  2.0100000e+01     hk      1.0000      0.0000   1
hk_158            log  factor    1.500480      1.0000000e-05  2.0100000e+01     hk      1.0000      0.0000   1
hk_159            log  factor    1.684346      1.0000000e-05  2.0100000e+01     hk      1.0000      0.0000   1
hk_160            log  factor    1.497525      1.0000000e-05  2.0100000e+01     hk      1.0000      0.0000   1
hk_161            log  factor    1.226944      1.0000000e-05  2.0100000e+01     hk      1.0000      0.0000   1
hk_162            log  factor    1.347606      1.0000000e-05  2.0100000e+01     hk      1.0000      0.0000   1
hk_163            log  factor   1.6251507E-02  1.0000000e-05  2.0100000e+01     hk      1.0000      0.0000   1
hk_164            log  factor   1.4008546E-02  1.0000000e-05  2.0100000e+01     hk      1.0000      0.0000   1
hk_165            log  factor   2.1280301E-02  1.0000000e-05  2.0100000e+01     hk      1.0000      0.0000   1
hk_166            log  factor   2.9183604E-02  1.0000000e-05  2.0100000e+01     hk      1.0000      0.0000   1
hk_167            log  factor   1.8144784E-02  1.0000000e-05  2.0100000e+01     hk      1.0000      0.0000   1
hk_168            log  factor   2.8504600E-02  1.0000000e-05  2.0100000e+01     hk      1.0000      0.0000   1
hk_169            log  factor   5.4076162E-03  1.0000000e-05  2.0100000e+01     hk      1.0000      0.0000   1
hk_170          fixed  factor    999999.0      0.0000000e+00       99999999     hk      1.0000      0.0000   1
hk_171          fixed  factor    999999.0      0.0000000e+00       99999999     hk      1.0000      0.0000   1
hk_172          fixed  factor    999999.0      0.0000000e+00       99999999     hk      1.0000      0.0000   1
hk_173          fixed  factor    999999.0      0.0000000e+00       99999999     hk      1.0000      0.0000   1
hk_174            log  factor   8.7312541E-03  1.0000000e-05  2.0100000e+01     hk      1.0000      0.0000   1
hk_175            log  factor   0.4071779      1.0000000e-05  2.0100000e+01     hk      1.0000      0.0000   1
hk_176            log  factor    1.262292      1.0000000e-05  2.0100000e+01     hk      1.0000      0.0000   1
hk_177            log  factor    1.935676      1.0000000e-05  2.0100000e+01     hk      1.0000      0.0000   1
hk_178            log  factor    1.492288      1.0000000e-05  2.0100000e+01     hk      1.0000      0.0000   1
hk_179            log  factor    1.389824      1.0000000e-05  2.0100000e+01     hk      1.0000      0.0000   1
hk_180            log  factor    1.490252      1.0000000e-05  2.0100000e+01     hk      1.0000      0.0000   1
hk_181            log  factor   1.8250377E-02  1.0000000e-05  2.0100000e+01     hk      1.0000      0.0000   1
hk_182            log  factor   2.1764505E-02  1.0000000e-05  2.0100000e+01     hk      1.0000      0.0000   1
hk_183            log  factor   1.2888519E-02  1.0000000e-05  2.0100000e+01     hk      1.0000      0.0000   1
hk_184            log  factor   5.0032606E-03  1.0000000e-05  2.0100000e+01     hk      1.0000      0.0000   1
hk_185            log  factor   6.6396690E-03  1.0000000e-05  2.0100000e+01     hk      1.0000      0.0000   1
hk_186            log  factor   4.8002202E-03  1.0000000e-05  2.0100000e+01     hk      1.0000      0.0000   1
hk_187            log  factor   7.4307919E-03  1.0000000e-05  2.0100000e+01     hk      1.0000      0.0000   1
hk_188            log  factor   0.2056064      1.0000000e-05  2.0100000e+01     hk      1.0000      0.0000   1
hk_189          fixed  factor    999999.0      0.0000000e+00       99999999     hk      1.0000      0.0000   1
hk_190          fixed  factor    999999.0      0.0000000e+00       99999999     hk      1.0000      0.0000   1
hk_191          fixed  factor    999999.0      0.0000000e+00       99999999     hk      1.0000      0.0000   1
hk_192            log  factor   2.5978923E-02  1.0000000e-05  2.0100000e+01     hk      1.0000      0.0000   1
hk_193            log  factor   0.3090832      1.0000000e-05  2.0100000e+01     hk      1.0000      0.0000   1
hk_194            log  factor    1.749007      1.0000000e-05  2.0100000e+01     hk      1.0000      0.0000   1
hk_195            log  factor    1.325009      1.0000000e-05  2.0100000e+01     hk      1.0000      0.0000   1
hk_196            log  factor    1.183901      1.0000000e-05  2.0100000e+01     hk      1.0000      0.0000   1
hk_197            log  factor    1.644838      1.0000000e-05  2.0100000e+01     hk      1.0000      0.0000   1
hk_198            log  factor    1.261453      1.0000000e-05  2.0100000e+01     hk      1.0000      0.0000   1
hk_199            log  factor   1.7795710E-02  1.0000000e-05  2.0100000e+01     hk      1.0000      0.0000   1
hk_200            log  factor   3.1547379E-02  1.0000000e-05  2.0100000e+01     hk      1.0000      0.0000   1
hk_201            log  factor   1.7132680E-02  1.0000000e-05  2.0100000e+01     hk      1.0000      0.0000   1
hk_202            log  factor   6.0032833E-03  1.0000000e-05  2.0100000e+01     hk      1.0000      0.0000   1
hk_203            log  factor   3.8436515E-03  1.0000000e-05  2.0100000e+01     hk      1.0000      0.0000   1
hk_204            log  factor   7.3564382E-03  1.0000000e-05  2.0100000e+01     hk      1.0000      0.0000   1
hk_205            log  factor   0.1781537      1.0000000e-05  2.0100000e+01     hk      1.0000      0.0000   1
hk_206            log  factor   4.3167856E-02  1.0000000e-05  2.0100000e+01     hk      1.0000      0.0000   1
hk_207            log  factor   0.2769682      1.0000000e-05  2.0100000e+01     hk      1.0000      0.0000   1
hk_208            log  factor   3.8509763E-02  1.0000000e-05  2.0100000e+01     hk      1.0000      0.0000   1
hk_209            log  factor   0.8199660      1.0000000e-05  2.0100000e+01     hk      1.0000      0.0000   1
hk_210            log  factor   2.0327835E-02  1.0000000e-05  2.0100000e+01     hk      1.0000      0.0000   1
hk_211            log  factor   0.1540032      1.0000000e-05  2.0100000e+01     hk      1.0000      0.0000   1
hk_212            log  factor    1.364926      1.0000000e-05  2.0100000e+01     hk      1.0000      0.0000   1
hk_213            log  factor    1.089996      1.0000000e-05  2.0100000e+01     hk      1.0000      0.0000   1
hk_214            log  factor    1.286855      1.0000000e-05  2.0100000e+01     hk      1.0000      0.0000   1
hk_215            log  factor    1.209626      1.0000000e-05  2.0100000e+01     hk      1.0000      0.0000   1
hk_216            log  factor    1.182854      1.0000000e-05  2.0100000e+01     hk      1.0000      0.0000   1
hk_217            log  factor   1.7090446E-02  1.0000000e-05  2.0100000e+01     hk      1.0000      0.0000   1
hk_218            log  factor   4.1852796E-02  1.0000000e-05  2.0100000e+01     hk      1.0000      0.0000   1
hk_219            log  factor   4.1726917E-02  1.0000000e-05  2.0100000e+01     hk      1.0000      0.0000   1
hk_220            log  factor   7.6680620E-03  1.0000000e-05  2.0100000e+01     hk      1.0000      0.0000   1
hk_221            log  factor   2.1662770E-02  1.0000000e-05  2.0100000e+01     hk      1.0000      0.0000   1
hk_222            log  factor   1.4554158E-02  1.0000000e-05  2.0100000e+01     hk      1.0000      0.0000   1
hk_223            log  factor    12.59861      1.0000000e-05  2.0100000e+01     hk      1.0000      0.0000   1
hk_224            log  factor   4.0159438E-02  1.0000000e-05  2.0100000e+01     hk      1.0000      0.0000   1
hk_225            log  factor   4.8587559E-02  1.0000000e-05  2.0100000e+01     hk      1.0000      0.0000   1
hk_226            log  factor    5.849277      1.0000000e-05  2.0100000e+01     hk      1.0000      0.0000   1
hk_227            log  factor   3.3602015E-02  1.0000000e-05  2.0100000e+01     hk      1.0000      0.0000   1
hk_228            log  factor   0.1358678      1.0000000e-05  2.0100000e+01     hk      1.0000      0.0000   1
hk_229            log  factor    1.145623      1.0000000e-05  2.0100000e+01     hk      1.0000      0.0000   1
hk_230            log  factor    1.450566      1.0000000e-05  2.0100000e+01     hk      1.0000      0.0000   1
hk_231            log  factor    1.301444      1.0000000e-05  2.0100000e+01     hk      1.0000      0.0000   1
hk_232            log  factor    1.262059      1.0000000e-05  2.0100000e+01     hk      1.0000      0.0000   1
hk_233            log  factor    1.446093      1.0000000e-05  2.0100000e+01     hk      1.0000      0.0000   1
hk_234            log  factor    1.304049      1.0000000e-05  2.0100000e+01     hk      1.0000      0.0000   1
hk_235            log  factor   1.7821957E-02  1.0000000e-05  2.0100000e+01     hk      1.0000      0.0000   1
hk_236            log  factor   1.9558277E-02  1.0000000e-05  2.0100000e+01     hk      1.0000      0.0000   1
hk_237            log  factor   2.1338375E-02  1.0000000e-05  2.0100000e+01     hk      1.0000      0.0000   1
hk_238            log  factor   2.1364445E-02  1.0000000e-05  2.0100000e+01     hk      1.0000      0.0000   1
hk_239            log  factor   1.7036595E-02  1.0000000e-05  2.0100000e+01     hk      1.0000      0.0000   1
hk_240            log  factor    2.298731      1.0000000e-05  2.0100000e+01     hk      1.0000      0.0000   1
hk_241            log  factor    2.940318      1.0000000e-05  2.0100000e+01     hk      1.0000      0.0000   1
hk_242            log  factor   6.9696691E-02  1.0000000e-05  2.0100000e+01     hk      1.0000      0.0000   1
hk_243            log  factor   3.6322376E-02  1.0000000e-05  2.0100000e+01     hk      1.0000      0.0000   1
hk_244            log  factor    14.03703      1.0000000e-05  2.0100000e+01     hk      1.0000      0.0000   1
hk_245            log  factor   4.3912848E-02  1.0000000e-05  2.0100000e+01     hk      1.0000      0.0000   1
hk_246            log  factor   0.8032298      1.0000000e-05  2.0100000e+01     hk      1.0000      0.0000   1
hk_247            log  factor   0.8909243      1.0000000e-05  2.0100000e+01     hk      1.0000      0.0000   1
hk_248            log  factor    1.581952      1.0000000e-05  2.0100000e+01     hk      1.0000      0.0000   1
hk_249            log  factor    1.428193      1.0000000e-05  2.0100000e+01     hk      1.0000      0.0000   1
hk_250            log  factor    1.212501      1.0000000e-05  2.0100000e+01     hk      1.0000      0.0000   1
hk_251            log  factor    1.507728      1.0000000e-05  2.0100000e+01     hk      1.0000      0.0000   1
hk_252            log  factor    1.147451      1.0000000e-05  2.0100000e+01     hk      1.0000      0.0000   1
hk_253            log  factor   1.4141194E-02  1.0000000e-05  2.0100000e+01     hk      1.0000      0.0000   1
hk_254            log  factor   1.6892878E-02  1.0000000e-05  2.0100000e+01     hk      1.0000      0.0000   1
hk_255            log  factor   1.4038421E-02  1.0000000e-05  2.0100000e+01     hk      1.0000      0.0000   1
hk_256            log  factor    2.250444      1.0000000e-05  2.0100000e+01     hk      1.0000      0.0000   1
hk_257            log  factor    2.111994      1.0000000e-05  2.0100000e+01     hk      1.0000      0.0000   1
hk_258            log  factor    1.512377      1.0000000e-05  2.0100000e+01     hk      1.0000      0.0000   1
hk_259            log  factor    2.372421      1.0000000e-05  2.0100000e+01     hk      1.0000      0.0000   1
hk_260            log  factor   0.9135084      1.0000000e-05  2.0100000e+01     hk      1.0000      0.0000   1
hk_261            log  factor    4.580250      1.0000000e-05  2.0100000e+01     hk      1.0000      0.0000   1