pcf
* control data
restart estimation
41  440  4  0  8
2  3  single  point  1  0  0
2.000000e+001  -3.000000e+000  3.000000e-001  1.000000e-002  -10 999 lamforgive derforgive
2.000000e+000  2.000000e+000  1.000000e-003
1.000000e-001 1 noaui noboundscale
0  1.000000e-002  3  3  1.000000e-002  3
0  0  0   PARSAVEITN
* singular value decomposition
  1
 23  5.000000e-007
  1
* parameter groups
Cond   relative   1.000000e-002  0.000000e+000  switch  2.000000e+000  parabolic
Kh     relative   1.000000e-002  0.000000e+000  switch  2.000000e+000  parabolic
Kv     relative   1.000000e-002  0.000000e+000  switch  2.000000e+000  parabolic
RCH    relative   1.000000e-002  0.000000e+000  switch  2.000000e+000  parabolic
* parameter data
spr1-5         log  factor    72729.18      1.000000e-001  1.000000e+008    cond   1.0   0.0 1
spr6-18        log  factor    2949.446      1.000000e-001  1.000000e+008    cond   1.0   0.0 1
spr15          log  factor    30622.39      1.000000e-001  1.000000e+008    cond   1.0   0.0 1
spr10          log  factor    1472.471      1.000000e-001  1.000000e+008    cond   1.0   0.0 1
hatch_str      log  factor   0.1000000      1.000000e-003  1.000000e+008    cond   1.0   0.0 1
kh-l1-z2     fixed  factor    1.000000      1.000000e-001  1.000000e+008    kh     1.0   0.0 1
kh-l1-z3     fixed  factor   0.6670000      1.000000e-001  1.000000e+001    kh     1.0   0.0 1
kh-l1-z4       log  factor    1.037592      1.000000e-001  1.000000e+001    kh     1.0   0.0 1
kh-l1-z5       log  factor   0.1000000      1.000000e-001  1.000000e+001    kh     1.0   0.0 1
kv-l1-z2     fixed  factor    1.000000      1.000000e-001  1.000000e+001    kv     1.0   0.0 1
kv-l1-z3     fixed  factor   0.6670000      1.000000e-001  1.000000e+001    kv     1.0   0.0 1
kv-l1-z4       log  factor    1.075305      1.000000e-001  1.000000e+001    kv     1.0   0.0 1
kv-l1-z5       log  factor    1.220687      1.000000e-001  1.000000e+001    kv     1.0   0.0 1
kh-l23-z2    fixed  factor    1.000000      1.000000e-001  1.000000e+001    kh     1.0   0.0 1
kh-l23-z3    fixed  factor    1.000000      1.000000e-001  1.000000e+001    kh     1.0   0.0 1
kh-l23-z4      log  factor    1.915380      1.000000e-001  1.000000e+001    kh     1.0   0.0 1
kh-l23-z5      log  factor    2.652891      1.000000e-001  1.000000e+001    kh     1.0   0.0 1
kv-l23-z2    fixed  factor    1.000000      1.000000e-001  1.000000e+001    kv     1.0   0.0 1
kv-l23-z3    fixed  factor    1.000000      1.000000e-001  1.000000e+001    kv     1.0   0.0 1
kv-l23-z4      log  factor    10.00000      1.000000e-001  1.000000e+001    kv     1.0   0.0 1
kv-l23-z5      log  factor    1.223158      1.000000e-001  1.000000e+001    kv     1.0   0.0 1
kh-l4-z2     fixed  factor    1.000000      1.000000e-001  1.000000e+001    kh     1.0   0.0 1
kh-l4-z3     fixed  factor    1.000000      1.000000e-001  1.000000e+001    kh     1.0   0.0 1
kh-l4-z4       log  factor    3.669479      1.000000e-001  1.000000e+001    kh     1.0   0.0 1
kh-l4-z5       log  factor   0.6918111      1.000000e-001  1.000000e+001    kh     1.0   0.0 1
kv-l4-z2     fixed  factor    1.000000      1.000000e-001  1.000000e+001    kv     1.0   0.0 1
kv-l4-z3     fixed  factor    1.000000      1.000000e-001  1.000000e+001    kv     1.0   0.0 1
kv-l4-z4       log  factor    3.295718      1.000000e-001  1.000000e+001    kv     1.0   0.0 1
kv-l4-z5       log  factor    2.579049      1.000000e-001  1.000000e+001    kv     1.0   0.0 1
kh-l56-z2    fixed  factor    1.000000      1.000000e-001  1.000000e+001    kh     1.0   0.0 1
kh-l56-z3    fixed  factor    1.000000      1.000000e-001  1.000000e+001    kh     1.0   0.0 1
kh-l56-z4      log  factor    1.418603      1.000000e-001  1.000000e+001    kh     1.0   0.0 1
kh-l56-z5      log  factor   0.1000000      1.000000e-001  1.000000e+001    kh     1.0   0.0 1
kv-l56-z2    fixed  factor    1.000000      1.000000e-001  1.000000e+001    kv     1.0   0.0 1
kv-l56-z3    fixed  factor    1.000000      1.000000e-001  1.000000e+001    kv     1.0   0.0 1
kv-l56-z4      log  factor    1.462730      1.000000e-001  1.000000e+001    kv     1.0   0.0 1
kv-l56-z5      log  factor   0.4724242      1.000000e-001  1.000000e+001    kv     1.0   0.0 1
rch-z2         fixed  factor   0.8907960      1.000000e-001  1.000000e+001    rch    1.0   0.0 1
rch-z3         fixed  factor    1.401702      1.000000e-001  1.000000e+001    rch    1.0   0.0 1
rch-z4         log    factor    1.582000      1.000000e-001  1.582000e+000    rch    1.0   0.0 1
rch-z5         log    factor    1.582000      1.000000e-001  1.582000e+000    rch    1.0   0.0 1
* observation groups
head1
head34
head46
head47
flux
spring
totalspring
stat
* observation data
o1    872.0000         3.200E+00       head1
o2    876.7000         3.200E+00       head1
o3    895.7000         3.200E+00       head1
o4    1001.0000        3.200E+00       head1
o5    1012.0000        3.200E+00       head1
o6    856.0000         3.200E+00       head1
o7    901.1000         3.200E+00       head1
o8    851.7000         3.200E+00       head1
o9    986.0000         3.200E+00       head1
o10    1042.0000       3.200E+00       head1
o11    930.6000        3.200E+00       head1
o12    913.3000        3.200E+00       head1
o13    885.7000        3.200E+00       head1
o14    885.2500        3.200E+00       head1
o15    850.4000        3.200E+00       head1
o16    919.2000        3.200E+00       head1
o17    940.0000        3.200E+00       head1
o18    933.0000        3.200E+00       head1
o19    843.8000        3.200E+00       head1
o20    893.0000        3.200E+00       head1
o21    1007.0000       3.200E+00       head1
o22    872.4000        3.200E+00       head1
o23    991.0000        3.200E+00       head1
o24    982.0000        3.200E+00       head1
o25    874.1000        3.200E+00       head1
o26    902.8000        3.200E+00       head1
o27    842.3000        3.200E+00       head1
o28    929.2000        3.200E+00       head1
o29    955.0000        3.200E+00       head1
o30    871.8000        3.200E+00       head1
o31    864.7000        3.200E+00       head1
o32    929.7000        3.200E+00       head1
o33    832.0000        3.200E+00       head1
o34    916.0000        3.200E+00       head1
o35    810.2000        3.200E+00       head1
o36    807.6000        3.200E+00       head1
o37    840.6000        3.200E+00       head1
o38    960.0000        3.200E+00       head1
o39    1016.0000       3.200E+00       head1
o40    867.2000        3.200E+00       head1
o41    867.5000        3.200E+00       head1
o42    876.8000        3.200E+00       head1
o43    870.1000        3.200E+00       head1
o44    921.6000        3.200E+00       head1
o45    918.0000        3.200E+00       head1
o46    906.1000        3.200E+00       head1
o47    881.5000        3.200E+00       head1
o48    868.4200        3.200E+00       head1
o49    909.7000        3.200E+00       head1
o50    893.3000        3.200E+00       head1
o51    961.0000        3.200E+00       head1
o52    861.9000        3.200E+00       head1
o53    873.8000        3.200E+00       head1
o54    868.5000        3.200E+00       head1
o55    904.1000        3.200E+00       head1
o56    859.0000        3.200E+00       head1
o57    978.0000        3.200E+00       head1
o58    888.3000        3.200E+00       head1
o59    910.0000        3.200E+00       head1
o60    884.0000        3.200E+00       head1
o61    859.2000        3.200E+00       head1
o62    858.0000        3.200E+00       head1
o63    945.5000        3.200E+00       head1
o64    854.0000        3.200E+00       head1
o65    916.0000        3.200E+00       head1
o66    932.9000        3.200E+00       head1
o67    832.2000        3.200E+00       head1
o68    905.8000        3.200E+00       head1
o69    948.0000        3.200E+00       head1
o70    862.8000        3.200E+00       head1
o71    1012.0000       3.200E+00       head1
o72    1000.0000       3.200E+00       head1
o73    942.9000        3.200E+00       head1
o74    982.0000        3.200E+00       head1
o75    891.6000        3.200E+00       head1
o76    874.4000        3.200E+00       head1
o77    855.9000        3.200E+00       head1
o78    903.1000        3.200E+00       head1
o79    926.0000        3.200E+00       head1
o80    930.0000        3.200E+00       head1
o81    863.6000        3.200E+00       head1
o82    889.6000        3.200E+00       head1
o83    906.2000        3.200E+00       head1
o84    882.8000        3.200E+00       head1
o85    901.5000        3.200E+00       head1
o86    880.2000        3.200E+00       head1
o87    902.5000        3.200E+00       head1
o88    818.0000        3.200E+00       head1
o89    796.3000        3.200E+00       head1
o90    886.8000        3.200E+00       head1
o91    889.1000        3.200E+00       head1
o92    876.2000        3.200E+00       head1
o93    987.0000        3.200E+00       head1
o94    846.8000        3.200E+00       head1
o95    931.0000        3.200E+00       head1
o96    919.5000        3.200E+00       head1
o97    889.5000        3.200E+00       head1
o98    1012.0000       3.200E+00       head1
o99    818.3075        5.000E+00       head34
o100    822.0175       5.000E+00       head34
o101    991.9900       5.000E+00       head34
o102    913.7000       7.500E-01       head46
o103    937.2000       7.500E-01       head46
o104    802.8000       7.500E-01       head46
o105    583.1000       7.500E-01       head46
o106    975.6000       7.500E-01       head46
o107    1018.6000      7.500E-01       head46
o108    822.6000       7.500E-01       head46
o109    974.7000       7.500E-01       head46
o110    593.4000       7.500E-01       head46
o111    879.9000       7.500E-01       head46
o112    1026.0000      7.500E-01       head46
o113    898.1000       7.500E-01       head46
o114    1024.6000      7.500E-01       head46
o115    978.3000       7.500E-01       head46
o116    969.3000       7.500E-01       head46
o117    723.0000       7.500E-01       head46
o118    692.1000       7.500E-01       head46
o119    722.9000       7.500E-01       head46
o120    971.9000       7.500E-01       head46
o121    723.1000       7.500E-01       head46
o122    845.6000       7.500E-01       head46
o123    648.4000       7.500E-01       head46
o124    683.5000       7.500E-01       head46
o125    580.4000       7.500E-01       head46
o126    663.3000       7.500E-01       head46
o127    997.0000       7.500E-01       head46
o128    1023.5000      7.500E-01       head46
o129    588.9000       7.500E-01       head46
o130    978.8000       7.500E-01       head46
o131    708.0000       7.500E-01       head46
o132    854.2000       7.500E-01       head46
o133    766.9000       7.500E-01       head46
o134    934.5000       7.500E-01       head46
o135    1001.9000      7.500E-01       head46
o136    603.8000       7.500E-01       head46
o137    601.6000       7.500E-01       head46
o138    959.4000       7.500E-01       head46
o139    577.7000       7.500E-01       head46
o140    859.0000       7.500E-01       head46
o141    889.4000       7.500E-01       head46
o142    1002.5000      7.500E-01       head46
o143    960.2000       7.500E-01       head46
o144    588.6000       7.500E-01       head46
o145    586.6000       7.500E-01       head46
o146    597.6000       7.500E-01       head46
o147    960.2000       7.500E-01       head46
o148    977.4000       7.500E-01       head46
o149    938.0000       7.500E-01       head46
o150    657.3000       7.500E-01       head46
o151    640.8000       7.500E-01       head46
o152    588.6000       7.500E-01       head46
o153    804.0000       7.500E-01       head46
o154    1017.9000      7.500E-01       head46
o155    605.0000       7.500E-01       head46
o156    839.8000       7.500E-01       head46
o157    917.0000       7.500E-01       head46
o158    872.3000       7.500E-01       head46
o159    877.5000       7.500E-01       head46
o160    976.9000       7.500E-01       head46
o161    769.8000       7.500E-01       head46
o162    1007.0000      7.500E-01       head46
o163    962.7000       7.500E-01       head46
o164    856.3000       7.500E-01       head46
o165    705.8000       7.500E-01       head46
o166    574.5000       7.500E-01       head46
o167    597.1000       7.500E-01       head46
o168    599.3000       7.500E-01       head46
o169    762.8000       7.500E-01       head46
o170    645.3000       7.500E-01       head46
o171    845.8000       7.500E-01       head46
o172    770.9000       7.500E-01       head46
o173    586.4000       7.500E-01       head46
o174    635.4000       7.500E-01       head46
o175    964.1000       7.500E-01       head46
o176    851.1000       7.500E-01       head46
o177    763.8000       7.500E-01       head46
o178    649.8000       7.500E-01       head46
o179    674.9000       7.500E-01       head46
o180    695.3000       7.500E-01       head46
o181    976.9000       7.500E-01       head46
o182    832.3000       7.500E-01       head46
o183    750.0000       7.500E-01       head46
o184    1034.3000      7.500E-01       head46
o185    595.8000       7.500E-01       head46
o186    613.4000       7.500E-01       head46
o187    686.0000       7.500E-01       head46
o188    972.1000       7.500E-01       head46
o189    930.8000       7.500E-01       head46
o190    925.3000       7.500E-01       head46
o191    598.1000       7.500E-01       head46
o192    598.1000       7.500E-01       head46
o193    755.5000       7.500E-01       head46
o194    649.8000       7.500E-01       head46
o195    745.8000       7.500E-01       head46
o196    854.0000       7.500E-01       head46
o197    968.1000       7.500E-01       head46
o198    597.4000       7.500E-01       head46
o199    998.8000       7.500E-01       head46
o200    960.2000       7.500E-01       head46
o201    942.3000       7.500E-01       head46
o202    601.4000       7.500E-01       head46
o203    978.9000       7.500E-01       head46
o204    892.4000       7.500E-01       head46
o205    962.2000       7.500E-01       head46
o206    841.2000       7.500E-01       head46
o207    975.8000       7.500E-01       head46
o208    972.7000       7.500E-01       head46
o209    1005.3000      7.500E-01       head46
o210    1021.9000      7.500E-01       head46
o211    732.6000       7.500E-01       head46
o212    598.3000       7.500E-01       head46
o213    859.0000       7.500E-01       head46
o214    964.2000       7.500E-01       head46
o215    591.2000       7.500E-01       head46
o216    578.2000       7.500E-01       head46
o217    592.7000       7.500E-01       head46
o218    713.6000       7.500E-01       head46
o219    853.4000       7.500E-01       head46
o220    1002.7000      7.500E-01       head46
o221    1007.2000      7.500E-01       head46
o222    1006.3000      7.500E-01       head46
o223    603.1000       7.500E-01       head46
o224    573.5000       7.500E-01       head46
o225    1023.7000      7.500E-01       head46
o226    663.4000       7.500E-01       head46
o227    592.4000       7.500E-01       head46
o228    679.1000       7.500E-01       head46
o229    847.2000       7.500E-01       head46
o230    622.9000       7.500E-01       head46
o231    573.5000       7.500E-01       head46
o232    775.0000       7.500E-01       head46
o233    778.2000       7.500E-01       head46
o234    687.8000       7.500E-01       head46
o235    986.4000       7.500E-01       head46
o236    971.0000       7.500E-01       head46
o237    1008.2000      7.500E-01       head46
o238    1011.8000      7.500E-01       head46
o239    948.3000       7.500E-01       head46
o240    1014.2000      7.500E-01       head46
o241    728.2000       7.500E-01       head46
o242    968.0000       7.500E-01       head46
o243    967.2000       7.500E-01       head46
o244    977.5000       7.500E-01       head46
o245    593.2000       7.500E-01       head46
o246    896.0000       7.500E-01       head46
o247    859.2000       7.500E-01       head46
o248    591.4000       7.500E-01       head46
o249    637.2000       7.500E-01       head46
o250    603.1000       7.500E-01       head46
o251    687.6000       7.500E-01       head46
o252    648.3000       7.500E-01       head46
o253    800.8000       7.500E-01       head46
o254    653.8000       7.500E-01       head46
o255    841.2000       7.500E-01       head46
o256    603.1000       7.500E-01       head46
o257    683.1000       7.500E-01       head46
o258    636.3000       7.500E-01       head46
o259    987.9000       7.500E-01       head46
o260    991.9000       7.500E-01       head46
o261    719.9000       7.500E-01       head46
o262    855.8000       7.500E-01       head46
o263    1013.5000      7.500E-01       head46
o264    769.8000       7.500E-01       head46
o265    687.6000       7.500E-01       head46
o266    1025.2000      7.500E-01       head46
o267    620.8000       7.500E-01       head46
o268    577.1000       7.500E-01       head46
o269    797.7000       7.500E-01       head46
o270    994.0000       7.500E-01       head46
o271    826.6000       7.500E-01       head46
o272    963.2000       7.500E-01       head46
o273    769.8000       7.500E-01       head46
o274    680.8000       7.500E-01       head46
o275    1005.2000      7.500E-01       head46
o276    899.8000       7.500E-01       head46
o277    966.1000       7.500E-01       head46
o278    742.3000       7.500E-01       head46
o279    594.3000       7.500E-01       head46
o280    579.4000       7.500E-01       head46
o281    754.9000       7.500E-01       head46
o282    621.2000       7.500E-01       head46
o283    896.0000       7.500E-01       head46
o284    718.0000       7.500E-01       head46
o285    582.8000       7.500E-01       head46
o286    631.3000       7.500E-01       head46
o287    802.7000       7.500E-01       head46
o288    998.9000       7.500E-01       head46
o289    992.0000       7.500E-01       head46
o290    952.7000       7.500E-01       head46
o291    664.3000       7.500E-01       head46
o292    1036.7000      7.500E-01       head46
o293    967.0000       7.500E-01       head46
o294    818.8000       7.500E-01       head46
o295    957.3000       7.500E-01       head46
o296    844.7000       7.500E-01       head46
o297    593.8000       7.500E-01       head46
o298    958.3000       7.500E-01       head46
o299    988.2000       7.500E-01       head46
o300    574.3000       7.500E-01       head46
o301    826.5000       7.500E-01       head46
o302    761.7000       7.500E-01       head46
o303    769.8000       7.500E-01       head46
o304    998.4000       7.500E-01       head46
o305    586.5000       7.500E-01       head46
o306    982.0000       7.500E-01       head46
o307    1000.1000      7.500E-01       head46
o308    664.3000       7.500E-01       head46
o309    604.4000       7.500E-01       head46
o310    939.0000       7.500E-01       head46
o311    605.1000       7.500E-01       head46
o312    669.3000       7.500E-01       head46
o313    855.7000       7.500E-01       head46
o314    750.7000       7.500E-01       head46
o315    641.4000       7.500E-01       head46
o316    997.8000       7.500E-01       head46
o317    799.6000       7.500E-01       head46
o318    1011.2000      7.500E-01       head46
o319    645.9000       7.500E-01       head46
o320    593.0000       7.500E-01       head46
o321    901.0000       7.500E-01       head46
o322    598.8000       7.500E-01       head46
o323    1012.3000      7.500E-01       head46
o324    573.3000       7.500E-01       head46
o325    1004.6000      7.500E-01       head46
o326    891.7000       7.500E-01       head46
o327    964.0000       7.500E-01       head46
o328    967.9000       7.500E-01       head46
o329    620.0000       7.500E-01       head46
o330    683.9000       7.500E-01       head46
o331    1012.6000      7.500E-01       head46
o332    1007.1000      7.500E-01       head46
o333    942.2000       7.500E-01       head46
o334    598.8000       7.500E-01       head46
o335    1011.6000      7.500E-01       head46
o336    1014.0000      7.500E-01       head46
o337    595.9000       7.500E-01       head46
o338    635.3000       7.500E-01       head46
o339    996.6000       7.500E-01       head46
o340    960.7000       7.500E-01       head46
o341    1014.3000      7.500E-01       head46
o342    928.2000       7.500E-01       head46
o343    637.3000       7.500E-01       head46
o344    1017.8000      7.500E-01       head46
o345    658.2000       7.500E-01       head46
o346    961.4000       7.500E-01       head46
o347    908.9000       7.500E-01       head46
o348    635.3000       7.500E-01       head46
o349    577.6000       7.500E-01       head46
o350    800.7000       7.500E-01       head46
o351    876.7000       7.500E-01       head46
o352    942.5000       7.500E-01       head46
o353    695.5000       7.500E-01       head46
o354    825.1000       7.500E-01       head46
o355    599.5000       7.500E-01       head46
o356    653.8000       7.500E-01       head46
o357    588.9000       7.500E-01       head46
o358    1015.2000      7.500E-01       head46
o359    669.3000       7.500E-01       head46
o360    653.7000       7.500E-01       head46
o361    1002.3000      7.500E-01       head46
o362    934.0000       7.500E-01       head46
o363    753.8000       7.500E-01       head46
o364    608.0000       7.500E-01       head46
o365    608.0000       7.500E-01       head46
o366    796.0000       7.500E-01       head46
o367    604.8000       7.500E-01       head46
o368    667.4000       7.500E-01       head46
o369    855.0000       7.500E-01       head46
o370    652.2000       7.500E-01       head46
o371    681.8000       7.500E-01       head46
o372    618.4000       7.500E-01       head46
o373    859.0000       7.500E-01       head46
o374    575.5000       7.500E-01       head46
o375    769.3000       7.500E-01       head46
o376    774.0000       7.500E-01       head46
o377    782.4000       7.500E-01       head46
o378    576.4000       7.500E-01       head46
o379    640.5000       7.500E-01       head46
o380    710.7000       7.500E-01       head46
o381    1004.7000      7.500E-01       head46
o382    632.0000       7.500E-01       head46
o383    583.0000       7.500E-01       head46
o384    641.3000       7.500E-01       head46
o385    923.2000       7.500E-01       head46
o386    592.9000       7.500E-01       head46
o387    727.5000       7.500E-01       head46
o388    658.2000       7.500E-01       head46
o389    804.4000       7.500E-01       head46
o390    661.2000       7.500E-01       head46
o391    854.7000       7.500E-01       head46
o392    663.3000       7.500E-01       head46
o393    700.7000       7.500E-01       head46
o394    880.3000       7.500E-01       head46
o395    583.2000       7.500E-01       head46
o396    657.3000       7.500E-01       head46
o397    946.2000       7.500E-01       head46
o398    1023.7000      7.500E-01       head46
o399    613.3000       7.500E-01       head46
o400    884.2000       7.500E-01       head46
o401    694.3000       7.500E-01       head46
o402    673.3000       7.500E-01       head46
o403    695.7000       7.500E-01       head46
o404    626.3000       7.500E-01       head46
o405    599.3000       7.500E-01       head46
o406    942.2000       7.500E-01       head46
o407    700.6000       7.500E-01       head46
o408    579.3000       7.500E-01       head46
o409    672.3000       7.500E-01       head46
o410    604.8000       7.500E-01       head46
o411    726.9000       7.500E-01       head46
o412    574.3000       7.500E-01       head46
o413    681.9000       7.500E-01       head46
o414    829.2000       7.500E-01       head46
o415    679.3000       7.500E-01       head46
o416    596.3000       7.500E-01       head46
o417    589.4000       7.500E-01       head46
o418    627.6000       7.500E-01       head46
o419    738.0000       7.500E-01       head46
o420    574.5000       7.500E-01       head46
o421    672.3000       7.500E-01       head46
o422    594.6000       7.500E-01       head46
o423    725.8000       7.500E-01       head46
o424    841.0000       0.000E+00       head47
o425    956.8000       0.000E+00       head47
o426    928.2000       0.000E+00       head47
o427    715.7000       0.000E+00       head47
o428    1033.3000      0.000E+00       head47
o429    1002.1000      0.000E+00       head47
o430    990.5000       0.000E+00       head47
o431    672.8450       0.000E+00       head47
Spr1234515    94787.0000   6.000E-03       spring
Spr67891718   19693.0000   6.000E-03       spring
Spr10          7700.0000   6.000E-03       spring
Spr15        -41387.0000   6.000E-03       spring
All_Sprs     122180.0000   1.200E-02       totalspring
Mink_Riv     275576.07     3.600E-03       flux
NWT_ITER        100.0000   0.000E+00       stat
MF_MassBalance  0.000000   0.000E+00       stat
MF_runtime_min  5.000000   0.000E+00       stat
* model command line
pestgv_rjh.bat
* model input/output
hat-mul3_fil.tpl       hat-mul3.fil
stream_HAT15_rjh.tpl   HAT15_rjh.sfr
targpest.ins           targpest.out
HAT15_streamflow.ins   HAT15_streamflow.dat
HAT15_rjh_lst.ins      HAT15.lst
