pcf
* control data
restart regularisation
     304   14411      33     201     237
     8     1   single   point   1   0   0
25.000       -3.0000      0.3  0.03  25     999  LAMFORGIVE
0.0050  1.5  0.001
0.1
-1  0.005  4  4  0.004  4
1  1  1  1 nojcosaveitn reisaveitn PARSAVEITN
* singular value decomposition
1
201  5.0000000E-07
0
* parameter groups
kh1mult      relative     1.0000E-02   0.000      switch      2.000      parabolic
kv1mult      relative     1.0000E-02   0.000      switch      2.000      parabolic
ss           relative     1.0000E-02   0.000      switch      2.000      parabolic
sy           relative     1.0000E-02   0.000      switch      2.000      parabolic
kh2mult      relative     1.0000E-02   0.000      switch      2.000      parabolic
kv2mult      relative     1.0000E-02   0.000      switch      2.000      parabolic
kh3mult      relative     1.0000E-02   0.000      switch      2.000      parabolic
kv3mult      relative     1.0000E-02   0.000      switch      2.000      parabolic
kh4mult      relative     1.0000E-02   0.000      switch      2.000      parabolic
kv4mult      relative     1.0000E-02   0.000      switch      2.000      parabolic
kh5mult      relative     1.0000E-02   0.000      switch      2.000      parabolic
kv5mult      relative     1.0000E-02   0.000      switch      2.000      parabolic
kh6mult      relative     1.0000E-02   0.000      switch      2.000      parabolic
kv6mult      relative     1.0000E-02   0.000      switch      2.000      parabolic
surfdep      relative     1.0000E-02   0.000      switch      2.000      parabolic
vksat        relative     1.0000E-02   0.000      switch      2.000      parabolic
bc-eps       relative     1.0000E-02   0.000      switch      2.000      parabolic
thetasfac    relative     1.0000E-02   0.000      switch      2.000      parabolic
lake         relative     1.0000E-02   0.000      switch      2.000      parabolic
sfres        relative     1.0000E-02   0.000      switch      2.000      parabolic
sandy_strkv  relative     1.0000E-02   0.000      switch      2.000      parabolic
alwetstrmkv  relative     1.0000E-02   0.000      switch      2.000      parabolic
stwet1strmkv relative     1.0000E-02   0.000      switch      2.000      parabolic
stwet2strmkv relative     1.0000E-02   0.000      switch      2.000      parabolic
norwetstrmkv relative     1.0000E-02   0.000      switch      2.000      parabolic
manwetstrmkv relative     1.0000E-02   0.000      switch      2.000      parabolic
runoff       relative     1.0000E-02   0.000      switch      2.000      parabolic
precip       relative     1.0000E-02   0.000      switch      2.000      parabolic
solrad       relative     1.0000E-02   0.000      switch      2.000      parabolic
prms         relative     1.0000E-02   0.000      switch      2.000      parabolic
snow         relative     1.0000E-02   0.000      switch      2.000      parabolic
evap         relative     1.0000E-02   0.000      switch      2.000      parabolic
szone        relative     1.0000E-02   0.000      switch      2.000      parabolic
* parameter data
alwetstrmkv  log    factor   1.0211325E-02  1.00000e-10    1.00000e+10 alwetstrmkv    1.000       0.000        1
bc-eps       fixed  factor    3.200000      3.2000         3.4000      bc-eps         1.000       0.000        1
al_evap_ad01 log    factor   0.5702235      0.50000        0.8558      evap           1.000       0.000        1
al_evap_ad02 log    factor   0.7162000      0.50000        0.7162      evap           1.000       0.000        1
al_evap_ad03 log    factor   0.5500000      0.50000        0.5500      evap           1.000       0.000        1
al_evap_ad04 log    factor   0.5500000      0.50000        0.5500      evap           1.000       0.000        1
al_evap_ad05 log    factor   0.5500000      0.50000        0.5500      evap           1.000       0.000        1
al_evap_ad06 log    factor   0.5906000      0.50000        0.5906      evap           1.000       0.000        1
al_evap_ad07 log    factor    1.010400      0.50000        1.0104      evap           1.000       0.000        1
al_evap_ad08 log    factor    1.184400      0.50000        1.1844      evap           1.000       0.000        1
al_evap_ad09 log    factor    1.281100      0.50000        1.2811      evap           1.000       0.000        1
al_evap_ad10 log    factor   0.7525625      0.50000        0.7708      evap           1.000       0.000        1
al_evap_ad11 log    factor   0.5500000      0.50000        0.5500      evap           1.000       0.000        1
al_evap_ad12 log    factor   0.7930706      0.50000        0.9947      evap           1.000       0.000        1
bm_evap_ad01 log    factor   0.6479709      0.50000        0.8558      evap           1.000       0.000        1
bm_evap_ad02 log    factor   0.5000000      0.50000        0.7162      evap           1.000       0.000        1
bm_evap_ad03 log    factor   0.5000000      0.50000        0.5500      evap           1.000       0.000        1
bm_evap_ad04 log    factor   0.5000000      0.50000        0.5500      evap           1.000       0.000        1
bm_evap_ad05 log    factor   0.5000000      0.50000        0.5500      evap           1.000       0.000        1
bm_evap_ad06 log    factor   0.5906000      0.50000        0.5906      evap           1.000       0.000        1
bm_evap_ad07 log    factor   0.8559642      0.50000        1.0104      evap           1.000       0.000        1
bm_evap_ad08 log    factor    1.161536      0.50000        1.1844      evap           1.000       0.000        1
bm_evap_ad09 log    factor    1.281100      0.50000        1.2811      evap           1.000       0.000        1
bm_evap_ad10 log    factor   0.7267208      0.50000        0.7708      evap           1.000       0.000        1
bm_evap_ad11 log    factor   0.5000000      0.50000        0.5500      evap           1.000       0.000        1
bm_evap_ad12 log    factor   0.5000000      0.50000        0.9947      evap           1.000       0.000        1
cr_evap_ad01 log    factor   0.6207422      0.50000       0.7318453    evap           1.000       0.000        1
cr_evap_ad02 log    factor   0.5000000      0.50000       0.7508388    evap           1.000       0.000        1
cr_evap_ad03 log    factor   0.5000000      0.50000       0.6817179    evap           1.000       0.000        1
cr_evap_ad04 log    factor   0.5000000      0.50000       0.6873338    evap           1.000       0.000        1
cr_evap_ad05 log    factor   0.6740209      0.50000       0.6740209    evap           1.000       0.000        1
cr_evap_ad06 log    factor   0.9364488      0.50000       0.9364488    evap           1.000       0.000        1
cr_evap_ad07 log    factor   0.7695522      0.50000        1.021577    evap           1.000       0.000        1
cr_evap_ad08 log    factor    1.077695      0.50000        1.077695    evap           1.000       0.000        1
cr_evap_ad09 log    factor   0.9648776      0.50000       0.9648776    evap           1.000       0.000        1
cr_evap_ad10 log    factor    1.319681      0.50000        1.319681    evap           1.000       0.000        1
cr_evap_ad11 log    factor   0.5000000      0.50000        1.133078    evap           1.000       0.000        1
cr_evap_ad12 log    factor   0.6212010      0.50000       0.7917623    evap           1.000       0.000        1
jh_coef_hru  log    factor    7.850240      5.0000        20.000       evap           1.000       0.000        1
jh_coef01    fixed  factor   1.6650311E-02  5.00000e-03   0.60000      evap           1.000       0.000        1
jh_coef02    fixed  factor   5.0538085E-03  5.00000e-03   0.60000      evap           1.000       0.000        1
jh_coef03    fixed  factor   1.7993841E-02  5.00000e-03   0.60000      evap           1.000       0.000        1
jh_coef04    fixed  factor   9.9096789E-03  5.00000e-03   0.60000      evap           1.000       0.000        1
jh_coef05    fixed  factor   9.5277041E-03  5.00000e-03   0.60000      evap           1.000       0.000        1
jh_coef06    fixed  factor   9.9293123E-03  5.00000e-03   0.60000      evap           1.000       0.000        1
jh_coef07    fixed  factor   1.0527311E-02  5.00000e-03   0.60000      evap           1.000       0.000        1
jh_coef08    fixed  factor   9.3499612E-03  5.00000e-03   0.60000      evap           1.000       0.000        1
jh_coef09    fixed  factor   9.7682998E-03  5.00000e-03   0.60000      evap           1.000       0.000        1
jh_coef10    fixed  factor   1.3712177E-02  5.00000e-03   0.60000      evap           1.000       0.000        1
jh_coef11    fixed  factor   2.3755321E-02  5.00000e-03   0.60000      evap           1.000       0.000        1
jh_coef12    fixed  factor   5.0315182E-03  5.00000e-03   0.60000      evap           1.000       0.000        1
lk_evap_ad01 log    factor    1.240100      0.50000        1.5000      evap           1.000       0.000        1
lk_evap_ad02 log    factor    1.200181      0.50000        1.5000      evap           1.000       0.000        1
lk_evap_ad03 log    factor   0.5000000      0.50000        1.5000      evap           1.000       0.000        1
lk_evap_ad04 log    factor   0.5000000      0.50000        1.5000      evap           1.000       0.000        1
lk_evap_ad05 log    factor   0.6684223      0.50000        1.5000      evap           1.000       0.000        1
lk_evap_ad06 log    factor   0.5675718      0.50000        1.5000      evap           1.000       0.000        1
lk_evap_ad07 log    factor   0.6689608      0.50000        1.5000      evap           1.000       0.000        1
lk_evap_ad08 log    factor   0.7654681      0.50000        1.5000      evap           1.000       0.000        1
lk_evap_ad09 log    factor    1.174694      0.50000        1.5000      evap           1.000       0.000        1
lk_evap_ad10 log    factor    1.353052      0.50000        1.5000      evap           1.000       0.000        1
lk_evap_ad11 log    factor   0.9946675      0.50000        1.5000      evap           1.000       0.000        1
lk_evap_ad12 log    factor    1.500000      0.50000        1.5000      evap           1.000       0.000        1
tr_evap_ad01 log    factor   0.5000000      0.50000        0.7101      evap           1.000       0.000        1
tr_evap_ad02 log    factor   0.5250000      0.50000        0.5250      evap           1.000       0.000        1
tr_evap_ad03 log    factor   0.5000000      0.50000        0.5250      evap           1.000       0.000        1
tr_evap_ad04 log    factor   0.5000000      0.50000        0.5250      evap           1.000       0.000        1
tr_evap_ad05 log    factor   0.7147908      0.50000        0.7673      evap           1.000       0.000        1
tr_evap_ad06 log    factor    1.062900      0.50000        1.0629      evap           1.000       0.000        1
tr_evap_ad07 log    factor   0.6384644      0.50000        0.6474      evap           1.000       0.000        1
tr_evap_ad08 log    factor    1.297993      0.50000        1.3641      evap           1.000       0.000        1
tr_evap_ad09 log    factor    1.575000      0.50000        1.5750      evap           1.000       0.000        1
tr_evap_ad10 log    factor    1.557622      0.50000        1.5750      evap           1.000       0.000        1
tr_evap_ad11 log    factor   0.9555882      0.50000        1.1271      evap           1.000       0.000        1
tr_evap_ad12 log    factor   0.9080000      0.50000        0.9080      evap           1.000       0.000        1
kh1mult      fixed  factor    1.000000      8.00000e-01   1.20000e+10  kh1mult        1.000       0.000        1
kh2mult      fixed  factor    1.000000      8.00000e-01   1.20000e+10  kh2mult        1.000       0.000        1
kh3mult      fixed  factor    1.000000      8.00000e-01   1.20000e+10  kh3mult        1.000       0.000        1
kh4mult      fixed  factor    1.000000      8.00000e-01   1.20000e+10  kh4mult        1.000       0.000        1
kh5mult      log    factor    1.040898      8.00000e-01   1.20000e+10  kh5mult        1.000       0.000        1
kh6mult      log    factor   0.8129960      8.00000e-01   1.20000e+10  kh6mult        1.000       0.000        1
kv1mult      fixed  factor    1.000000      8.00000e-01   1.20000e+10  kv1mult        1.000       0.000        1
kv2mult      fixed  factor    1.000000      8.00000e-01   1.20000e+10  kv2mult        1.000       0.000        1
kv3mult      fixed  factor    1.000000      8.00000e-01   1.20000e+10  kv3mult        1.000       0.000        1
kv4mult      fixed  factor    1.000000      8.00000e-01   1.20000e+10  kv4mult        1.000       0.000        1
kv5mult      fixed  factor    1.000000      8.00000e-01   1.20000e+10  kv5mult        1.000       0.000        1
kv6mult      fixed  factor    1.000000      8.00000e-01   1.20000e+10  kv6mult        1.000       0.000        1
lake01lay1   log    factor   5.0236108E-03  1.00000e-05   5.00000e-01  lake           1.000       0.000        1
lake02lay1   log    factor   1.6988636E-03  1.00000e-05   5.00000e-01  lake           1.000       0.000        1
lake03lay1   log    factor   8.5741168E-04  1.00000e-05   5.00000e-01  lake           1.000       0.000        1
lake04lay1   log    factor   1.4275144E-02  1.00000e-05   5.00000e-01  lake           1.000       0.000        1
lake05lay1   log    factor   1.4299440E-02  1.00000e-05   5.00000e-01  lake           1.000       0.000        1
lake06lay1   log    factor   5.8080197E-04  1.00000e-05   5.00000e-01  lake           1.000       0.000        1
lake07lay1   log    factor   3.4981441E-02  1.00000e-05   5.00000e-01  lake           1.000       0.000        1
lake07lay2   tied   factor   3.4981441E-02  1.00000e-05   5.00000e-01  lake           1.000       0.000        1
lake08lay1   log    factor   1.1251941E-03  1.00000e-05   5.00000e-01  lake           1.000       0.000        1
lake08lay2   tied   factor   1.1251941E-03  1.00000e-05   5.00000e-01  lake           1.000       0.000        1
lake09lay1   log    factor   7.5573719E-03  1.00000e-05   5.00000e-01  lake           1.000       0.000        1
lake10lay1   log    factor   3.7399095E-02  1.00000e-05   5.00000e-01  lake           1.000       0.000        1
lake11lay1   log    factor   4.5471863E-02  1.00000e-05   5.00000e-01  lake           1.000       0.000        1
lake12lay1   log    factor   3.3413402E-02  1.00000e-05   5.00000e-01  lake           1.000       0.000        1
lake12lay2   tied   factor   3.3413402E-02  1.00000e-05   5.00000e-01  lake           1.000       0.000        1
lake12lay3   tied   factor   3.3413403E-03  1.00000e-05   5.00000e-01  lake           1.000       0.000        1
lake13lay1   log    factor   1.8451203E-03  1.00000e-05   5.00000e-01  lake           1.000       0.000        1
lake14lay1   log    factor   6.8240605E-03  1.00000e-05   5.00000e-01  lake           1.000       0.000        1
lake15lay1   log    factor   5.1908453E-03  1.00000e-05   5.00000e-01  lake           1.000       0.000        1
lake15lay2   tied   factor   5.1908453E-03  1.00000e-05   5.00000e-01  lake           1.000       0.000        1
lake16lay1   log    factor   6.0659536E-02  1.00000e-05   5.00000e-01  lake           1.000       0.000        1
lake17lay1   log    factor   9.8954839E-03  1.00000e-05   5.00000e-01  lake           1.000       0.000        1
lake18lay1   log    factor   9.8635873E-04  1.00000e-05   5.00000e-01  lake           1.000       0.000        1
lake18lay2   tied   factor   9.8635873E-04  1.00000e-05   5.00000e-01  lake           1.000       0.000        1
lake18lay3   tied   factor   9.8635873E-05  1.00000e-05   5.00000e-01  lake           1.000       0.000        1
lake19lay1   log    factor   1.9201543E-02  1.00000e-05   5.00000e-01  lake           1.000       0.000        1
lake19lay2   tied   factor   1.9201543E-02  1.00000e-05   5.00000e-01  lake           1.000       0.000        1
lake20lay1   log    factor   5.0808944E-03  1.00000e-05   5.00000e-01  lake           1.000       0.000        1
lake21lay1   log    factor   4.9983244E-03  1.00000e-05   5.00000e-01  lake           1.000       0.000        1
lake22lay1   log    factor   6.8959168E-03  1.00000e-05   5.00000e-01  lake           1.000       0.000        1
lake22lay2   tied   factor   6.8959168E-03  1.00000e-05   5.00000e-01  lake           1.000       0.000        1
lake22lay3   tied   factor   6.8959168E-04  1.00000e-05   5.00000e-01  lake           1.000       0.000        1
lake23lay1   log    factor   5.0857937E-04  1.00000e-05   5.00000e-01  lake           1.000       0.000        1
lake23lay2   tied   factor   5.0857937E-04  1.00000e-05   5.00000e-01  lake           1.000       0.000        1
lake24lay1   log    factor   2.0364109E-03  1.00000e-05   5.00000e-01  lake           1.000       0.000        1
lake24lay2   tied   factor   2.0364109E-03  1.00000e-05   5.00000e-01  lake           1.000       0.000        1
lake24lay3   tied   factor   2.0364109E-04  1.00000e-05   5.00000e-01  lake           1.000       0.000        1
lake25lay1   log    factor   0.1602151      1.00000e-05   5.00000e-01  lake           1.000       0.000        1
lake26lay1   log    factor   9.1517400E-04  1.00000e-05   5.00000e-01  lake           1.000       0.000        1
lake27lay1   log    factor   0.1488058      1.00000e-05   5.00000e-01  lake           1.000       0.000        1
lake28lay1   log    factor   0.5000000      1.00000e-05   5.00000e-01  lake           1.000       0.000        1
lake28lay2   tied   factor   0.5000000      1.00000e-05   5.00000e-01  lake           1.000       0.000        1
lake29lay1   log    factor   1.9778178E-02  1.00000e-05   5.00000e-01  lake           1.000       0.000        1
lake29lay2   tied   factor   1.9778178E-02  1.00000e-05   5.00000e-01  lake           1.000       0.000        1
lake30lay1   log    factor   2.5590011E-02  1.00000e-05   5.00000e-01  lake           1.000       0.000        1
lake30lay2   tied   factor   2.5590011E-02  1.00000e-05   5.00000e-01  lake           1.000       0.000        1
lake30lay3   tied   factor   2.5590011E-03  1.00000e-05   5.00000e-01  lake           1.000       0.000        1
profund      log    factor   3.2917000E-04  1.00000e-05   5.00000e-01  lake           1.000       0.000        1
manwetstrmkv log    factor   3.0406979E-03  1.00000e-10   1.00000e+10  manwetstrmkv   1.000       0.000        1
norwetstrmkv log    factor   1.9158741E-02  1.00000e-10   1.00000e+10  norwetstrmkv   1.000       0.000        1
adjmix_rain  fixed  factor   0.2963927      0.10000        3.1000      precip         1.000      -.1000        1
ppt_rad_adj  fixed  factor   0.2109670      0.20000       0.60000      precip         1.000      -.1000        1
rain_adj01   log    factor   0.9633219      0.7500        1.5000       precip         1.000       0.000        1
rain_adj02   log    factor    1.500000      0.7500        1.5000       precip         1.000       0.000        1
rain_adj03   log    factor   0.7500000      0.7500        1.5000       precip         1.000       0.000        1
rain_adj04   log    factor   0.9268233      0.7500        1.5000       precip         1.000       0.000        1
rain_adj05   log    factor    1.469456      0.7500        1.5000       precip         1.000       0.000        1
rain_adj06   log    factor    1.495939      0.7500        1.5000       precip         1.000       0.000        1
rain_adj07   log    factor   0.9355188      0.7500        1.5000       precip         1.000       0.000        1
rain_adj08   log    factor    1.363214      0.7500        1.5000       precip         1.000       0.000        1
rain_adj09   log    factor   0.9828765      0.7500        1.5000       precip         1.000       0.000        1
rain_adj10   log    factor   0.9711326      0.7500        1.5000       precip         1.000       0.000        1
rain_adj11   log    factor   0.8005182      0.7500        1.5000       precip         1.000       0.000        1
rain_adj12   log    factor    1.475727      0.7500        1.5000       precip         1.000       0.000        1
sat_threshol fixed  factor    6.000000      1.0000        999.00       precip         1.000       0.000        1
snow_adj01   log    factor    1.275169      0.7500        1.5000       precip         1.000       0.000        1
snow_adj02   log    factor   0.7500000      0.7500        1.5000       precip         1.000       0.000        1
snow_adj03   log    factor    1.459560      0.7500        1.5000       precip         1.000       0.000        1
snow_adj04   log    factor    1.500000      0.7500        1.5000       precip         1.000       0.000        1
snow_adj05   log    factor    1.500000      0.7500        1.5000       precip         1.000       0.000        1
snow_adj06   fixed  factor    1.000000      0.7500        1.5000       precip         1.000       0.000        1
snow_adj07   fixed  factor    1.000000      0.7500        1.5000       precip         1.000       0.000        1
snow_adj08   fixed  factor    1.000000      0.7500        1.5000       precip         1.000       0.000        1
snow_adj09   fixed  factor    1.000000      0.7500        1.5000       precip         1.000       0.000        1
snow_adj10   log    factor    1.244981      0.7500        1.5000       precip         1.000       0.000        1
snow_adj11   log    factor    1.356135      0.7500        1.5000       precip         1.000       0.000        1
snow_adj12   log    factor   0.7500000      0.7500        1.5000       precip         1.000       0.000        1
tmax_adj     fixed  factor    10.10000      0.10000        20.100      precip         1.000      -10.10        1
tmax_allsnow log    factor    41.13883      0.10000        50.100      precip         1.000      -10.10        1
scsc_107_115 log    factor   1.4402638E-02  1.00000e-10   0.02000      prms           1.000       0.000        1
scsc_107_122 log    factor   0.1176409      1.00000e-10   0.20000      prms           1.000       0.000        1
scsc_118_121 log    factor   8.3923237E-02  1.00000e-10   0.70000      prms           1.000       0.000        1
scsc_123_121 log    factor   6.5537431E-02  1.00000e-10   0.70000      prms           1.000       0.000        1
scsc_023_s17 log    factor    1.000000      1.00000e-10    1.0000      prms           1.000       0.000        1
scsc_037_s10 log    factor   0.2413570      1.00000e-10   0.70000      prms           1.000       0.000        1
scsc_038_s13 log    factor   0.1514676      1.00000e-10    1.0000      prms           1.000       0.000        1
scsc_044_s15 log    factor   6.0017073E-02  1.00000e-10    1.0000      prms           1.000       0.000        1
scsc_073_s20 log    factor   9.4675780E-02  1.00000e-10   0.70000      prms           1.000       0.000        1
scsc_075_092 log    factor   0.1100000      1.00000e-10    0.1100      prms           1.000       0.000        1
scsc_075_144 log    factor   1.8356263E-02  1.00000e-10    0.9000      prms           1.000       0.000        1
scsc_084_094 log    factor   4.6453213E-03  1.00000e-10    1.0000      prms           1.000       0.000        1
scsc_086_s12 log    factor    1.000000      1.00000e-10    1.0000      prms           1.000       0.000        1
scsc_104_108 log    factor   0.2804993      1.00000e-10   0.70000      prms           1.000       0.000        1
scsc_110_095 log    factor   7.8020848E-03  1.00000e-10   0.70000      prms           1.000       0.000        1
scsc_112_113 log    factor   1.3929604E-10  1.00000e-10   0.70000      prms           1.000       0.000        1
scsc_140_s14 log    factor    1.000000      1.00000e-10    1.0000      prms           1.000       0.000        1
scsc_142_s02 log    factor   0.1092303      1.00000e-10   0.70000      prms           1.000       0.000        1
carea_max0   log    factor   0.1308925      0.10000        1.1000      runoff         1.000      -.1000        1
carea_max1   log    factor   0.2468309      0.10000        1.1000      runoff         1.000      -.1000        1
carea_max2   log    factor   0.1154476      0.10000        1.1000      runoff         1.000      -.1000        1
carea_max3   log    factor   0.1353084      0.10000        1.1000      runoff         1.000      -.1000        1
carea_max4   log    factor   0.3984182      0.10000        1.1000      runoff         1.000      -.1000        1
carea_max5   log    factor   0.3535561      0.10000        1.1000      runoff         1.000      -.1000        1
carea_max6   log    factor   0.1000000      0.10000        1.1000      runoff         1.000      -.1000        1
carea_max7   log    factor   0.1058039      0.10000        1.1000      runoff         1.000      -.1000        1
carea_max8   log    factor   0.1000000      0.10000        1.1000      runoff         1.000      -.1000        1
smidx_coef   log    factor   4.2153613E-02  1.00000e-04    1.0000      runoff         1.000       0.000        1
smidx_exp    log    factor   0.2000000      0.20000       0.80000      runoff         1.000       0.000        1
snowinfil_ma fixed  factor    1.100000      0.10000        20.100      runoff         1.000      -.1000        1
sandy_strkv  log    factor    2.592293      1.00000e-10   1.00000e+10  sandy_strkv    1.000       0.000        1
alleqlowflw1 log    factor    9553.453      1000.          12500.      sfres         1.000        0.000         1
alleqlowflw2 log    factor    15261.92      12500.         20000.      sfres         1.000        0.000         1
ljohnoutmult log    factor    1.585191      0.10000        100.00      sfres         0.1000        0.000        1
mannoutmult  log    factor    15.49026      0.10000        200.00      sfres         0.1000        0.000        1
troutlowflw1  log    factor    4000.000      500.0          4000.      sfres         0.1000       0.000         1	
troutlowflw2  log    factor    5044.951      4000.0        10000.      sfres         0.1000       0.000         1	
troutoutmult log    factor    2.814163      0.10000        100.00      sfres         0.1000        0.000        1
alleqlowflw3 log    factor    19000.00      19000         26000        sfres 	     1.000       0.000         1
alleqlowflw4 log    factor    27355.08      26000         39999        sfres	     1.000       0.000         1
alleqlowflw5 log    factor    57603.16      40000	       61999       sfres	     1.000       0.000         1
alleqlowflw6 log    factor    62000.00      62000          90000       sfres	     1.000       0.000         1
albset_rna   fixed  factor   0.1000000      0.10000        1.1000      snow           1.000      -.1000        1
albset_rnm   fixed  factor   0.1776388      0.10000        1.1000      snow           1.000      -.1000        1
albset_sna   fixed  factor   3.5148200E-03  1.00000e-03    1.0000      snow           1.000       0.000        1
albset_snm   fixed  factor   6.6071500E-02  1.00000e-03    1.0000      snow           1.000       0.000        1
cecn_coef    fixed  factor    20.10000      0.10000        20.100      snow           1.000      -.1000        1
den_init     fixed  factor   8.5195510E-02  1.00000e-02   0.50000      snow           1.000       0.000        1
den_max      fixed  factor   0.2447282      0.10000       0.80000      snow           1.000       0.000        1
emis_noppt   fixed  factor   0.9110770      0.75000        1.0000      snow           1.000       0.000        1
freeh2o_cap  fixed  factor   0.2000000      1.00000e-02   0.20000      snow           1.000       0.000        1
potet_sublim fixed  factor   0.7500000      0.10000       0.75000      snow           1.000       0.000        1
settle_const fixed  factor   0.1242420      1.00000e-02   0.50000      snow           1.000       0.000        1
crad_coef    fixed  factor   0.4609141      0.10000       0.70000      solrad         1.000       0.000        1
crad_exp     fixed  factor   0.8000000      0.20000       0.80000      solrad         1.000       0.000        1
radj_sppt    fixed  factor    1.100000      0.10000        1.1000      solrad         1.000      -.1000        1
radj_wppt    fixed  factor   0.1133348      0.10000        1.1000      solrad         1.000      -.1000        1
storage      log    factor   9.9014600E-04  1.00000e-05   1.00000e-02  ss             1.000       0.000        1
stwetstrmkv1 log    factor   1.9903106E-02  1.00000e-10   1.00000e+10  stwet1strmkv   1.000       0.000        1
stwetstrmkv2 log    factor   1.5914655E-02  1.00000e-10   1.00000e+10  stwet2strmkv   1.000       0.000        1
surfdep      log    factor   0.4968902      3.00000e-01   2.00000e+00  surfdep        1.000       0.000        1
sy           fixed   factor   0.2700000      0.10000       0.30000     sy             1.000       0.000        1
fastcoef_li0 fixed  factor   0.1000000      0.10000        1.1000      szone          1.000      -.1000        1
fastcoef_li1 fixed  factor   0.1000000      0.10000        1.1000      szone          1.000      -.1000        1
fastcoef_li2 fixed  factor   0.1000000      0.10000        1.1000      szone          1.000      -.1000        1
fastcoef_li3 fixed  factor   0.1000000      0.10000        1.1000      szone          1.000      -.1000        1
fastcoef_li4 fixed  factor   0.1000000      0.10000        1.1000      szone          1.000      -.1000        1
fastcoef_li5 fixed  factor   0.1000000      0.10000        1.1000      szone          1.000      -.1000        1
fastcoef_li6 fixed  factor   0.1000000      0.10000        1.1000      szone          1.000      -.1000        1