pcf
* control data
             restart          estimation
      2710      1224         4         0         9         0
         3         2              single               point         1         0         0            noobsref
   2.000000E+01  -3.000000E+00   3.000000E-01   1.000000E-02       -10       999          lamforgive        noderforgive
   1.000000E+01   1.000000E+01   1.000000E-03         0         0
   1.000000E-01         1   1.100000E+00               noaui          nosenreuse        noboundscale
         0   1.000000E-02         3         3   1.000000E-02         3   0.000000E+00         1  -1.000000E+00
         0         0         0         0             jcosave          verboserec          jcosaveitn          reisaveitn          parsaveitn        noparsaverun
* singular value decomposition
1
1715  5.000000e-007
1
* parameter groups
                   kz              relative    1.000000E-02  0              always_3    2.000000E+00             parabolic    1.000000E-05    5.000000E-01               smaller
                   kp              absolute    1.000000E-02  0              always_3    2.000000E+00             parabolic    1.000000E-05    5.000000E-01               smaller
                 rech              rel_to_max    1.000000E-02  0              always_3    2.000000E+00             parabolic    1.000000E-05    5.000000E-01               smaller
                 cond              relative    1.000000E-02  0              always_3    2.000000E+00             parabolic    1.000000E-05    5.000000E-01               smaller
* parameter data
                 sfrc                   log                factor    1.170181E-05    1.000000E-10    1.000000E+10                  cond    1.000000E+00    0.000000E+00          1
                 ghbc                   log                factor    1.193377E-02    1.000000E-10    1.000000E+10                  cond    1.000000E+00    0.000000E+00          1
           ratio_sgab                 fixed                factor    1.000000E+00    1.000000E+00    1.000000E+10                  rech    1.000000E+00    0.000000E+00          1
           ratio_sgbc                 fixed                factor    1.000000E+00    7.000000E-01    1.000000E+10                  rech    1.000000E+00    0.000000E+00          1
           ratio_sgcd                 fixed                factor    1.000000E+00    1.000000E+00    1.000000E+10                  rech    1.000000E+00    0.000000E+00          1
         rch_mult_sgd                   log                factor    1.426041E-03    1.000000E-10    1.000000E+10                  rech    1.000000E+00    0.000000E+00          1
           kpkp89_mc1                   log                factor    1.342737E-03    1.000000E-10    1.000000E+02                    kp    1.000000E+00    0.000000E+00          1
           kpkp90_mc1                   log                factor    2.144178E-02    1.000000E-10    1.000000E+02                    kp    1.000000E+00    0.000000E+00          1
          kpkp106_mc1                   log                factor    1.769064E+01    1.000000E-10    1.000000E+02                    kp    1.000000E+00    0.000000E+00          1
          kpkp107_mc1                   log                factor    2.408580E-03    1.000000E-10    1.000000E+02                    kp    1.000000E+00    0.000000E+00          1
          kpkp108_mc1                   log                factor    3.461525E-03    1.000000E-10    1.000000E+02                    kp    1.000000E+00    0.000000E+00          1
          kpkp122_mc1                   log                factor    7.827406E-04    1.000000E-10    1.000000E+02                    kp    1.000000E+00    0.000000E+00          1
          kpkp123_mc1                   log                factor    6.551486E+05    1.000000E-10    1.000000E+02                    kp    1.000000E+00    0.000000E+00          1
          kpkp124_mc1                   log                factor    7.353795E+04    1.000000E-10    1.000000E+02                    kp    1.000000E+00    0.000000E+00          1
          kpkp125_mc1                   log                factor    1.500561E-01    1.000000E-10    1.000000E+02                    kp    1.000000E+00    0.000000E+00          1
          kpkp126_mc1                   log                factor    1.253403E+00    1.000000E-10    1.000000E+02                    kp    1.000000E+00    0.000000E+00          1
          kpkp139_mc1                   log                factor    4.797513E+03    1.000000E-10    1.000000E+02                    kp    1.000000E+00    0.000000E+00          1
          kpkp140_bh1                   log                factor    9.359439E-02    1.000000E-10    1.000000E+02                    kp    1.000000E+00    0.000000E+00          1
          kpkp141_mc1                   log                factor    3.781304E+03    1.000000E-10    1.000000E+02                    kp    1.000000E+00    0.000000E+00          1
          kpkp142_mc1                   log                factor    4.292973E+04    1.000000E-10    1.000000E+02                    kp    1.000000E+00    0.000000E+00          1
          kpkp143_br1                   log                factor    1.549618E+02    1.000000E-10    1.000000E+02                    kp    1.000000E+00    0.000000E+00          1
          kpkp144_br1                   log                factor    6.770415E+00    1.000000E-10    1.000000E+02                    kp    1.000000E+00    0.000000E+00          1
          kpkp156_mc1                   log                factor    6.737630E-02    1.000000E-10    1.000000E+02                    kp    1.000000E+00    0.000000E+00          1
          kpkp157_mc1                   log                factor    2.605114E+01    1.000000E-10    1.000000E+02                    kp    1.000000E+00    0.000000E+00          1
          kpkp158_tn1                   log                factor    5.119939E-01    1.000000E-10    1.000000E+02                    kp    1.000000E+00    0.000000E+00          1
          kpkp159_br1                   log                factor    8.111381E+02    1.000000E-10    1.000000E+02                    kp    1.000000E+00    0.000000E+00          1
          kpkp160_br1                   log                factor    3.136704E-04    1.000000E-10    1.000000E+02                    kp    1.000000E+00    0.000000E+00          1
          kpkp161_br1                   log                factor    2.546890E+03    1.000000E-10    1.000000E+02                    kp    1.000000E+00    0.000000E+00          1
          kpkp173_mc1                   log                factor    1.522430E-04    1.000000E-10    1.000000E+02                    kp    1.000000E+00    0.000000E+00          1
          kpkp174_mc1                   log                factor    1.924781E-03    1.000000E-10    1.000000E+02                    kp    1.000000E+00    0.000000E+00          1
          kpkp175_tn1                   log                factor    9.161815E-04    1.000000E-10    1.000000E+02                    kp    1.000000E+00    0.000000E+00          1
          kpkp176_br1                   log                factor    1.516292E+02    1.000000E-10    1.000000E+02                    kp    1.000000E+00    0.000000E+00          1
          kpkp177_br1                   log                factor    2.617158E-02    1.000000E-10    1.000000E+02                    kp    1.000000E+00    0.000000E+00          1
          kpkp191_mc1                   log                factor    3.401897E+05    1.000000E-10    1.000000E+02                    kp    1.000000E+00    0.000000E+00          1
          kpkp192_tn1                   log                factor    8.010857E+02    1.000000E-10    1.000000E+02                    kp    1.000000E+00    0.000000E+00          1
          kpkp193_br1                   log                factor    3.903366E+00    1.000000E-10    1.000000E+02                    kp    1.000000E+00    0.000000E+00          1
          kpkp202_ts1                   log                factor    1.270011E+00    1.000000E-10    1.000000E+02                    kp    1.000000E+00    0.000000E+00          1
          kpkp203_mc1                   log                factor    2.535615E+00    1.000000E-10    1.000000E+02                    kp    1.000000E+00    0.000000E+00          1
          kpkp204_br1                   log                factor    3.509857E-02    1.000000E-10    1.000000E+02                    kp    1.000000E+00    0.000000E+00          1
          kpkp205_mc1                   log                factor    1.253288E+01    1.000000E-10    1.000000E+02                    kp    1.000000E+00    0.000000E+00          1
          kpkp206_mc1                   log                factor    7.457187E+03    1.000000E-10    1.000000E+02                    kp    1.000000E+00    0.000000E+00          1
          kpkp207_mc1                   log                factor    1.198218E+00    1.000000E-10    1.000000E+02                    kp    1.000000E+00    0.000000E+00          1
          kpkp208_tn1                   log                factor    1.018187E+00    1.000000E-10    1.000000E+02                    kp    1.000000E+00    0.000000E+00          1
          kpkp209_ks1                   log                factor    9.402804E-01    1.000000E-10    1.000000E+02                    kp    1.000000E+00    0.000000E+00          1
          kpkp217_ts1                   log                factor    3.081903E+05    1.000000E-10    1.000000E+02                    kp    1.000000E+00    0.000000E+00          1
          kpkp218_ts1                   log                factor    2.794271E+04    1.000000E-10    1.000000E+02                    kp    1.000000E+00    0.000000E+00          1
          kpkp219_ts1                   log                factor    7.486734E+02    1.000000E-10    1.000000E+02                    kp    1.000000E+00    0.000000E+00          1
          kpkp220_br1                   log                factor    3.195644E+05    1.000000E-10    1.000000E+02                    kp    1.000000E+00    0.000000E+00          1
          kpkp221_br1                   log                factor    1.566940E-02    1.000000E-10    1.000000E+02                    kp    1.000000E+00    0.000000E+00          1
          kpkp222_br1                   log                factor    1.926187E-01    1.000000E-10    1.000000E+02                    kp    1.000000E+00    0.000000E+00          1
          kpkp223_br1                   log                factor    4.138040E-04    1.000000E-10    1.000000E+02                    kp    1.000000E+00    0.000000E+00          1
          kpkp224_ks1                   log                factor    1.287378E-01    1.000000E-10    1.000000E+02                    kp    1.000000E+00    0.000000E+00          1
          kpkp225_ks1                   log                factor    3.134904E+05    1.000000E-10    1.000000E+02                    kp    1.000000E+00    0.000000E+00          1
          kpkp235_br1                   log                factor    7.062490E-02    1.000000E-10    1.000000E+02                    kp    1.000000E+00    0.000000E+00          1
          kpkp236_ts1                   log                factor    5.748517E+02    1.000000E-10    1.000000E+02                    kp    1.000000E+00    0.000000E+00          1
          kpkp237_br1                   log                factor    4.200004E-02    1.000000E-10    1.000000E+02                    kp    1.000000E+00    0.000000E+00          1
          kpkp238_br1                   log                factor    5.162606E+00    1.000000E-10    1.000000E+02                    kp    1.000000E+00    0.000000E+00          1
          kpkp239_br1                   log                factor    1.624804E+01    1.000000E-10    1.000000E+02                    kp    1.000000E+00    0.000000E+00          1
          kpkp240_br1                   log                factor    5.656423E+04    1.000000E-10    1.000000E+02                    kp    1.000000E+00    0.000000E+00          1
          kpkp253_br1                   log                factor    1.723988E+02    1.000000E-10    1.000000E+02                    kp    1.000000E+00    0.000000E+00          1
          kpkp255_br1                   log                factor    8.096558E-01    1.000000E-10    1.000000E+02                    kp    1.000000E+00    0.000000E+00          1
          kpkp256_br1                   log                factor    1.426241E+04    1.000000E-10    1.000000E+02                    kp    1.000000E+00    0.000000E+00          1
          kpkp162_br1                   log                factor    3.274361E-02    1.000000E-10    1.000000E+02                    kp    1.000000E+00    0.000000E+00          1
          kpkp178_br1                   log                factor    2.084652E-02    1.000000E-10    1.000000E+02                    kp    1.000000E+00    0.000000E+00          1
          kpkp179_br1                   log                factor    7.277944E-03    1.000000E-10    1.000000E+02                    kp    1.000000E+00    0.000000E+00          1
          kpkp194_br1                   log                factor    1.806740E-02    1.000000E-10    1.000000E+02                    kp    1.000000E+00    0.000000E+00          1
          kpkp195_br1                   log                factor    4.830990E+03    1.000000E-10    1.000000E+02                    kp    1.000000E+00    0.000000E+00          1
          kpkp196_br1                   log                factor    4.667614E+02    1.000000E-10    1.000000E+02                    kp    1.000000E+00    0.000000E+00          1
          kpkp210_br1                   log                factor    3.414605E+03    1.000000E-10    1.000000E+02                    kp    1.000000E+00    0.000000E+00          1
          kpkp211_br1                   log                factor    2.908582E+03    1.000000E-10    1.000000E+02                    kp    1.000000E+00    0.000000E+00          1
          kpkp212_br1                   log                factor    3.904009E+01    1.000000E-10    1.000000E+02                    kp    1.000000E+00    0.000000E+00          1
          kpkp226_br1                   log                factor    3.760523E-01    1.000000E-10    1.000000E+02                    kp    1.000000E+00    0.000000E+00          1
          kpkp227_br1                   log                factor    4.596628E+00    1.000000E-10    1.000000E+02                    kp    1.000000E+00    0.000000E+00          1
          kpkp228_br1                   log                factor    3.371496E-03    1.000000E-10    1.000000E+02                    kp    1.000000E+00    0.000000E+00          1
          kpkp241_br1                   log                factor    6.234723E-02    1.000000E-10    1.000000E+02                    kp    1.000000E+00    0.000000E+00          1
          kpkp242_br1                   log                factor    1.541394E+00    1.000000E-10    1.000000E+02                    kp    1.000000E+00    0.000000E+00          1
          kpkp243_br1                   log                factor    2.750622E+01    1.000000E-10    1.000000E+02                    kp    1.000000E+00    0.000000E+00          1
          kpkp180_br1                   log                factor    1.763294E+03    1.000000E-10    1.000000E+02                    kp    1.000000E+00    0.000000E+00          1
          kpkp197_br1                   log                factor    1.779715E-01    1.000000E-10    1.000000E+02                    kp    1.000000E+00    0.000000E+00          1
          kpkp198_br1                   log                factor    2.058603E-03    1.000000E-10    1.000000E+02                    kp    1.000000E+00    0.000000E+00          1
          kpkp213_br1                   log                factor    6.928071E-03    1.000000E-10    1.000000E+02                    kp    1.000000E+00    0.000000E+00          1
          kpkp214_br1                   log                factor    2.674814E-08    1.000000E-10    1.000000E+02                    kp    1.000000E+00    0.000000E+00          1
          kpkp215_br1                   log                factor    3.471177E+02    1.000000E-10    1.000000E+02                    kp    1.000000E+00    0.000000E+00          1
          kpkp216_ts1                   log                factor    3.445482E+02    1.000000E-10    1.000000E+02                    kp    1.000000E+00    0.000000E+00          1
          kpkp229_br1                   log                factor    2.247282E+00    1.000000E-10    1.000000E+02                    kp    1.000000E+00    0.000000E+00          1
          kpkp230_br1                   log                factor    7.569875E-01    1.000000E-10    1.000000E+02                    kp    1.000000E+00    0.000000E+00          1
          kpkp231_ts1                   log                factor    3.991084E+01    1.000000E-10    1.000000E+02                    kp    1.000000E+00    0.000000E+00          1
          kpkp232_ts1                   log                factor    1.880037E+04    1.000000E-10    1.000000E+02                    kp    1.000000E+00    0.000000E+00          1
          kpkp233_ts1                   log                factor    5.732183E+06    1.000000E-10    1.000000E+02                    kp    1.000000E+00    0.000000E+00          1
          kpkp234_ts1                   log                factor    9.735527E-02    1.000000E-10    1.000000E+02                    kp    1.000000E+00    0.000000E+00          1
          kpkp245_br1                   log                factor    9.895689E-07    1.000000E-10    1.000000E+02                    kp    1.000000E+00    0.000000E+00          1
          kpkp246_br1                   log                factor    3.079798E+06    1.000000E-10    1.000000E+02                    kp    1.000000E+00    0.000000E+00          1
          kpkp247_ts1                   log                factor    7.697605E-01    1.000000E-10    1.000000E+02                    kp    1.000000E+00    0.000000E+00          1
          kpkp248_ts1                   log                factor    1.117701E+01    1.000000E-10    1.000000E+02                    kp    1.000000E+00    0.000000E+00          1
          kpkp249_ts1                   log                factor    2.994873E+04    1.000000E-10    1.000000E+02                    kp    1.000000E+00    0.000000E+00          1
          kpkp250_ts1                   log                factor    9.595151E+01    1.000000E-10    1.000000E+02                    kp    1.000000E+00    0.000000E+00          1
          kpkp251_ts1                   log                factor    1.282784E+02    1.000000E-10    1.000000E+02                    kp    1.000000E+00    0.000000E+00          1
          kpkp252_ts1                   log                factor    6.711603E+01    1.000000E-10    1.000000E+02                    kp    1.000000E+00    0.000000E+00          1
          kpkp254_br1                   log                factor    4.332323E-01    1.000000E-10    1.000000E+02                    kp    1.000000E+00    0.000000E+00          1
          kpkp257_ts1                   log                factor    9.187125E+00    1.000000E-10    1.000000E+02                    kp    1.000000E+00    0.000000E+00          1
          kpkp258_br1                   log                factor    3.860753E-02    1.000000E-10    1.000000E+02                    kp    1.000000E+00    0.000000E+00          1
          kpkp259_br1                   log                factor    2.943004E+02    1.000000E-10    1.000000E+02                    kp    1.000000E+00    0.000000E+00          1
          kpkp260_br1                   log                factor    8.078501E-06    1.000000E-10    1.000000E+02                    kp    1.000000E+00    0.000000E+00          1
          kpkp261_br1                   log                factor    1.803106E+02    1.000000E-10    1.000000E+02                    kp    1.000000E+00    0.000000E+00          1
          kpkp262_ts1                   log                factor    8.216302E+02    1.000000E-10    1.000000E+02                    kp    1.000000E+00    0.000000E+00          1
          kpkp263_ts1                   log                factor    7.701975E+01    1.000000E-10    1.000000E+02                    kp    1.000000E+00    0.000000E+00          1
          kpkp264_ts1                   log                factor    1.270272E+00    1.000000E-10    1.000000E+02                    kp    1.000000E+00    0.000000E+00          1
          kpkp265_ts1                   log                factor    2.868476E+05    1.000000E-10    1.000000E+02                    kp    1.000000E+00    0.000000E+00          1
          kpkp266_ts1                   log                factor    6.170679E-01    1.000000E-10    1.000000E+02                    kp    1.000000E+00    0.000000E+00          1
          kpkp267_ts1                   log                factor    2.021566E+01    1.000000E-10    1.000000E+02                    kp    1.000000E+00    0.000000E+00          1
          kpkp268_ts1                   log                factor    1.341201E+00    1.000000E-10    1.000000E+02                    kp    1.000000E+00    0.000000E+00          1
          kpkp269_ts1                   log                factor    4.278251E+00    1.000000E-10    1.000000E+02                    kp    1.000000E+00    0.000000E+00          1
          kpkp270_ts1                   log                factor    7.131675E+01    1.000000E-10    1.000000E+02                    kp    1.000000E+00    0.000000E+00          1
          kpkp271_ts1                   log                factor    1.772123E+02    1.000000E-10    1.000000E+02                    kp    1.000000E+00    0.000000E+00          1
          kpkp272_ts1                   log                factor    1.066779E-10    1.000000E-10    1.000000E+02                    kp    1.000000E+00    0.000000E+00          1
          kpkp273_br1                   log                factor    6.445858E+00    1.000000E-10    1.000000E+02                    kp    1.000000E+00    0.000000E+00          1
          kpkp274_br1                   log                factor    1.603095E+04    1.000000E-10    1.000000E+02                    kp    1.000000E+00    0.000000E+00          1
          kpkp275_ts1                   log                factor    3.139446E-01    1.000000E-10    1.000000E+02                    kp    1.000000E+00    0.000000E+00          1
          kpkp276_ts1                   log                factor    2.383277E-01    1.000000E-10    1.000000E+02                    kp    1.000000E+00    0.000000E+00          1
          kpkp277_ts1                   log                factor    6.987868E-04    1.000000E-10    1.000000E+02                    kp    1.000000E+00    0.000000E+00          1
          kpkp278_ts1                   log                factor    1.081640E+01    1.000000E-10    1.000000E+02                    kp    1.000000E+00    0.000000E+00          1
          kpkp279_ts1                   log                factor    3.037415E+03    1.000000E-10    1.000000E+02                    kp    1.000000E+00    0.000000E+00          1
          kpkp280_ts1                   log                factor    2.739879E+01    1.000000E-10    1.000000E+02                    kp    1.000000E+00    0.000000E+00          1
          kpkp281_ts1                   log                factor    2.882188E-02    1.000000E-10    1.000000E+02                    kp    1.000000E+00    0.000000E+00          1
          kpkp282_ts1                   log                factor    7.232281E+02    1.000000E-10    1.000000E+02                    kp    1.000000E+00    0.000000E+00          1
          kpkp283_ts1                   log                factor    3.432376E+03    1.000000E-10    1.000000E+02                    kp    1.000000E+00    0.000000E+00          1
          kpkp284_ts1                   log                factor    6.121691E+00    1.000000E-10    1.000000E+02                    kp    1.000000E+00    0.000000E+00          1
          kpkp285_ts1                   log                factor    2.169767E+03    1.000000E-10    1.000000E+02                    kp    1.000000E+00    0.000000E+00          1
          kpkp286_ts1                   log                factor    2.294254E+02    1.000000E-10    1.000000E+02                    kp    1.000000E+00    0.000000E+00          1
          kpkp287_ts1                   log                factor    8.662869E+00    1.000000E-10    1.000000E+02                    kp    1.000000E+00    0.000000E+00          1
          kpkp288_ts1                   log                factor    2.296772E+00    1.000000E-10    1.000000E+02                    kp    1.000000E+00    0.000000E+00          1
          kpkp289_ts1                   log                factor    1.079174E-01    1.000000E-10    1.000000E+02                    kp    1.000000E+00    0.000000E+00          1
          kpkp290_ts1                   log                factor    3.542307E+03    1.000000E-10    1.000000E+02                    kp    1.000000E+00    0.000000E+00          1
          kpkp291_ts1                   log                factor    4.947001E+01    1.000000E-10    1.000000E+02                    kp    1.000000E+00    0.000000E+00          1
          kpkp292_ts1                   log                factor    1.273274E+00    1.000000E-10    1.000000E+02                    kp    1.000000E+00    0.000000E+00          1
          kpkp293_ts1                   log                factor    6.967012E-06    1.000000E-10    1.000000E+02                    kp    1.000000E+00    0.000000E+00          1
          kpkp294_ts1                   log                factor    1.786065E+06    1.000000E-10    1.000000E+02                    kp    1.000000E+00    0.000000E+00          1
          kpkp295_ts1                   log                factor    3.677377E+04    1.000000E-10    1.000000E+02                    kp    1.000000E+00    0.000000E+00          1
          kpkp296_ts1                   log                factor    3.077905E+03    1.000000E-10    1.000000E+02                    kp    1.000000E+00    0.000000E+00          1
          kpkp297_ts1                   log                factor    1.103007E+02    1.000000E-10    1.000000E+02                    kp    1.000000E+00    0.000000E+00          1
          kpkp298_ts1                   log                factor    6.001427E+01    1.000000E-10    1.000000E+02                    kp    1.000000E+00    0.000000E+00          1
          kpkp299_ts1                   log                factor    1.262273E-01    1.000000E-10    1.000000E+02                    kp    1.000000E+00    0.000000E+00          1
          kpkp300_ts1                   log                factor    1.928377E-01    1.000000E-10    1.000000E+02                    kp    1.000000E+00    0.000000E+00          1
          kpkp301_ts1                   log                factor    1.264157E+02    1.000000E-10    1.000000E+02                    kp    1.000000E+00    0.000000E+00          1
          kpkp302_ts1                   log                factor    3.697068E+00    1.000000E-10    1.000000E+02                    kp    1.000000E+00    0.000000E+00          1
          kpkp303_ts1                   log                factor    2.333217E+02    1.000000E-10    1.000000E+02                    kp    1.000000E+00    0.000000E+00          1
          kpkp304_ts1                   log                factor    2.065140E+07    1.000000E-10    1.000000E+02                    kp    1.000000E+00    0.000000E+00          1
          kpkp305_ts1                   log                factor    4.377471E+00    1.000000E-10    1.000000E+02                    kp    1.000000E+00    0.000000E+00          1
          kpkp306_ts1                   log                factor    2.065034E+05    1.000000E-10    1.000000E+02                    kp    1.000000E+00    0.000000E+00          1
          kpkp307_ts1                   log                factor    1.739452E+03    1.000000E-10    1.000000E+02                    kp    1.000000E+00    0.000000E+00          1
          kpkp308_ts1                   log                factor    9.262126E-01    1.000000E-10    1.000000E+02                    kp    1.000000E+00    0.000000E+00          1
          kpkp309_ts1                   log                factor    4.618189E+02    1.000000E-10    1.000000E+02                    kp    1.000000E+00    0.000000E+00          1
          kpkp310_ts1                   log                factor    5.692942E+00    1.000000E-10    1.000000E+02                    kp    1.000000E+00    0.000000E+00          1
          kpkp311_ts1                   log                factor    2.070011E+01    1.000000E-10    1.000000E+02                    kp    1.000000E+00    0.000000E+00          1
          kpkp312_ts1                   log                factor    2.297171E+02    1.000000E-10    1.000000E+02                    kp    1.000000E+00    0.000000E+00          1
          kpkp313_ts1                   log                factor    3.766771E-03    1.000000E-10    1.000000E+02                    kp    1.000000E+00    0.000000E+00          1
          kpkp314_ts1                   log                factor    1.926343E+01    1.000000E-10    1.000000E+02                    kp    1.000000E+00    0.000000E+00          1
          kpkp315_ts1                   log                factor    4.005761E+00    1.000000E-10    1.000000E+02                    kp    1.000000E+00    0.000000E+00          1