pcf
* control data
restart regularisation
    100  10635      1      0     12  
    1    3 double point  1    0  0
   20.000       -3.0000      0.3  0.03  10     999  lamforgive
      0.100  10.0  0.001
 0.1      1
    50  0.005  4  4  0.005  4
1  1  1  1 nojcosaveitn reisaveitn
* singular value decomposition
     1
   100  5.0000000E-07
     1
* svd assist
lpr_trans3.pst
lpr_trans3.jco
    1    2    0    1    0
* parameter groups
 pargp absolute    0.015  0.0  switch    2.0 parabolic
* parameter data
par1         none  relative   10.000     1.0e-20  1.0e20  pargp  1.0  -10.000      1
par2         none  relative   10.000     1.0e-20  1.0e20  pargp  1.0  -10.000      1
par3         none  relative   10.000     1.0e-20  1.0e20  pargp  1.0  -10.000      1
par4         none  relative   10.000     1.0e-20  1.0e20  pargp  1.0  -10.000      1
par5         none  relative   10.000     1.0e-20  1.0e20  pargp  1.0  -10.000      1
par6         none  relative   10.000     1.0e-20  1.0e20  pargp  1.0  -10.000      1
par7         none  relative   10.000     1.0e-20  1.0e20  pargp  1.0  -10.000      1
par8         none  relative   10.000     1.0e-20  1.0e20  pargp  1.0  -10.000      1
par9         none  relative   10.000     1.0e-20  1.0e20  pargp  1.0  -10.000      1
par10        none  relative   10.000     1.0e-20  1.0e20  pargp  1.0  -10.000      1
par11        none  relative   10.000     1.0e-20  1.0e20  pargp  1.0  -10.000      1
par12        none  relative   10.000     1.0e-20  1.0e20  pargp  1.0  -10.000      1
par13        none  relative   10.000     1.0e-20  1.0e20  pargp  1.0  -10.000      1
par14        none  relative   10.000     1.0e-20  1.0e20  pargp  1.0  -10.000      1
par15        none  relative   10.000     1.0e-20  1.0e20  pargp  1.0  -10.000      1
par16        none  relative   10.000     1.0e-20  1.0e20  pargp  1.0  -10.000      1
par17        none  relative   10.000     1.0e-20  1.0e20  pargp  1.0  -10.000      1
par18        none  relative   10.000     1.0e-20  1.0e20  pargp  1.0  -10.000      1
par19        none  relative   10.000     1.0e-20  1.0e20  pargp  1.0  -10.000      1
par20        none  relative   10.000     1.0e-20  1.0e20  pargp  1.0  -10.000      1
par21        none  relative   10.000     1.0e-20  1.0e20  pargp  1.0  -10.000      1
par22        none  relative   10.000     1.0e-20  1.0e20  pargp  1.0  -10.000      1
par23        none  relative   10.000     1.0e-20  1.0e20  pargp  1.0  -10.000      1
par24        none  relative   10.000     1.0e-20  1.0e20  pargp  1.0  -10.000      1
par25        none  relative   10.000     1.0e-20  1.0e20  pargp  1.0  -10.000      1
par26        none  relative   10.000     1.0e-20  1.0e20  pargp  1.0  -10.000      1
par27        none  relative   10.000     1.0e-20  1.0e20  pargp  1.0  -10.000      1
par28        none  relative   10.000     1.0e-20  1.0e20  pargp  1.0  -10.000      1
par29        none  relative   10.000     1.0e-20  1.0e20  pargp  1.0  -10.000      1
par30        none  relative   10.000     1.0e-20  1.0e20  pargp  1.0  -10.000      1
par31        none  relative   10.000     1.0e-20  1.0e20  pargp  1.0  -10.000      1
par32        none  relative   10.000     1.0e-20  1.0e20  pargp  1.0  -10.000      1
par33        none  relative   10.000     1.0e-20  1.0e20  pargp  1.0  -10.000      1
par34        none  relative   10.000     1.0e-20  1.0e20  pargp  1.0  -10.000      1
par35        none  relative   10.000     1.0e-20  1.0e20  pargp  1.0  -10.000      1
par36        none  relative   10.000     1.0e-20  1.0e20  pargp  1.0  -10.000      1
par37        none  relative   10.000     1.0e-20  1.0e20  pargp  1.0  -10.000      1
par38        none  relative   10.000     1.0e-20  1.0e20  pargp  1.0  -10.000      1
par39        none  relative   10.000     1.0e-20  1.0e20  pargp  1.0  -10.000      1
par40        none  relative   10.000     1.0e-20  1.0e20  pargp  1.0  -10.000      1
par41        none  relative   10.000     1.0e-20  1.0e20  pargp  1.0  -10.000      1
par42        none  relative   10.000     1.0e-20  1.0e20  pargp  1.0  -10.000      1
par43        none  relative   10.000     1.0e-20  1.0e20  pargp  1.0  -10.000      1
par44        none  relative   10.000     1.0e-20  1.0e20  pargp  1.0  -10.000      1
par45        none  relative   10.000     1.0e-20  1.0e20  pargp  1.0  -10.000      1
par46        none  relative   10.000     1.0e-20  1.0e20  pargp  1.0  -10.000      1
par47        none  relative   10.000     1.0e-20  1.0e20  pargp  1.0  -10.000      1
par48        none  relative   10.000     1.0e-20  1.0e20  pargp  1.0  -10.000      1
par49        none  relative   10.000     1.0e-20  1.0e20  pargp  1.0  -10.000      1
par50        none  relative   10.000     1.0e-20  1.0e20  pargp  1.0  -10.000      1
par51        none  relative   10.000     1.0e-20  1.0e20  pargp  1.0  -10.000      1
par52        none  relative   10.000     1.0e-20  1.0e20  pargp  1.0  -10.000      1
par53        none  relative   10.000     1.0e-20  1.0e20  pargp  1.0  -10.000      1
par54        none  relative   10.000     1.0e-20  1.0e20  pargp  1.0  -10.000      1
par55        none  relative   10.000     1.0e-20  1.0e20  pargp  1.0  -10.000      1
par56        none  relative   10.000     1.0e-20  1.0e20  pargp  1.0  -10.000      1
par57        none  relative   10.000     1.0e-20  1.0e20  pargp  1.0  -10.000      1
par58        none  relative   10.000     1.0e-20  1.0e20  pargp  1.0  -10.000      1
par59        none  relative   10.000     1.0e-20  1.0e20  pargp  1.0  -10.000      1
par60        none  relative   10.000     1.0e-20  1.0e20  pargp  1.0  -10.000      1
par61        none  relative   10.000     1.0e-20  1.0e20  pargp  1.0  -10.000      1
par62        none  relative   10.000     1.0e-20  1.0e20  pargp  1.0  -10.000      1
par63        none  relative   10.000     1.0e-20  1.0e20  pargp  1.0  -10.000      1
par64        none  relative   10.000     1.0e-20  1.0e20  pargp  1.0  -10.000      1
par65        none  relative   10.000     1.0e-20  1.0e20  pargp  1.0  -10.000      1
par66        none  relative   10.000     1.0e-20  1.0e20  pargp  1.0  -10.000      1
par67        none  relative   10.000     1.0e-20  1.0e20  pargp  1.0  -10.000      1
par68        none  relative   10.000     1.0e-20  1.0e20  pargp  1.0  -10.000      1
par69        none  relative   10.000     1.0e-20  1.0e20  pargp  1.0  -10.000      1
par70        none  relative   10.000     1.0e-20  1.0e20  pargp  1.0  -10.000      1
par71        none  relative   10.000     1.0e-20  1.0e20  pargp  1.0  -10.000      1
par72        none  relative   10.000     1.0e-20  1.0e20  pargp  1.0  -10.000      1
par73        none  relative   10.000     1.0e-20  1.0e20  pargp  1.0  -10.000      1
par74        none  relative   10.000     1.0e-20  1.0e20  pargp  1.0  -10.000      1
par75        none  relative   10.000     1.0e-20  1.0e20  pargp  1.0  -10.000      1
par76        none  relative   10.000     1.0e-20  1.0e20  pargp  1.0  -10.000      1
par77        none  relative   10.000     1.0e-20  1.0e20  pargp  1.0  -10.000      1
par78        none  relative   10.000     1.0e-20  1.0e20  pargp  1.0  -10.000      1
par79        none  relative   10.000     1.0e-20  1.0e20  pargp  1.0  -10.000      1
par80        none  relative   10.000     1.0e-20  1.0e20  pargp  1.0  -10.000      1
par81        none  relative   10.000     1.0e-20  1.0e20  pargp  1.0  -10.000      1
par82        none  relative   10.000     1.0e-20  1.0e20  pargp  1.0  -10.000      1
par83        none  relative   10.000     1.0e-20  1.0e20  pargp  1.0  -10.000      1
par84        none  relative   10.000     1.0e-20  1.0e20  pargp  1.0  -10.000      1
par85        none  relative   10.000     1.0e-20  1.0e20  pargp  1.0  -10.000      1
par86        none  relative   10.000     1.0e-20  1.0e20  pargp  1.0  -10.000      1
par87        none  relative   10.000     1.0e-20  1.0e20  pargp  1.0  -10.000      1
par88        none  relative   10.000     1.0e-20  1.0e20  pargp  1.0  -10.000      1
par89        none  relative   10.000     1.0e-20  1.0e20  pargp  1.0  -10.000      1
par90        none  relative   10.000     1.0e-20  1.0e20  pargp  1.0  -10.000      1
par91        none  relative   10.000     1.0e-20  1.0e20  pargp  1.0  -10.000      1
par92        none  relative   10.000     1.0e-20  1.0e20  pargp  1.0  -10.000      1
par93        none  relative   10.000     1.0e-20  1.0e20  pargp  1.0  -10.000      1
par94        none  relative   10.000     1.0e-20  1.0e20  pargp  1.0  -10.000      1
par95        none  relative   10.000     1.0e-20  1.0e20  pargp  1.0  -10.000      1
par96        none  relative   10.000     1.0e-20  1.0e20  pargp  1.0  -10.000      1
par97        none  relative   10.000     1.0e-20  1.0e20  pargp  1.0  -10.000      1
par98        none  relative   10.000     1.0e-20  1.0e20  pargp  1.0  -10.000      1
par99        none  relative   10.000     1.0e-20  1.0e20  pargp  1.0  -10.000      1
par100       none  relative   10.000     1.0e-20  1.0e20  pargp  1.0  -10.000      1
* observation groups
WISA_H
DM_H
PRF_H
VP_H
USGS_H
LAKE_H
Q_Synoptic
Q_Eisenhower
regul_rch
regul_kp2
regul_kz2
regul_stor
* observation data
dm_10_4     1.08045000E+03     2.22490000E+00     dm_h
dm_10_6     1.08065000E+03     2.22490000E+00     dm_h
dm_10_8     1.07885000E+03     2.22490000E+00     dm_h
dm_10_10     1.07825000E+03     2.22490000E+00     dm_h
dm_11_4     1.07990000E+03     2.22490000E+00     dm_h
dm_11_6     1.08040000E+03     2.22490000E+00     dm_h
dm_11_8     1.07830000E+03     2.22490000E+00     dm_h
dm_11_10     1.07800000E+03     2.22490000E+00     dm_h
dm_12_4     1.07963000E+03     2.22490000E+00     dm_h
dm_12_6     1.08033000E+03     2.22490000E+00     dm_h
dm_12_8     1.07813000E+03     2.22490000E+00     dm_h
dm_12_10     1.07773000E+03     2.22490000E+00     dm_h
dm_13_4     1.08104000E+03     2.22490000E+00     dm_h
dm_13_6     1.08174000E+03     2.22490000E+00     dm_h
dm_13_8     1.08004000E+03     2.22490000E+00     dm_h
dm_13_10     1.07924000E+03     2.22490000E+00     dm_h
dm_14_4     1.07606000E+03     2.22490000E+00     dm_h
dm_14_6     1.07706000E+03     2.22490000E+00     dm_h
dm_14_8     1.07586000E+03     2.22490000E+00     dm_h
dm_14_10     1.07476000E+03     2.22490000E+00     dm_h
dm_15_4     1.08084000E+03     2.22490000E+00     dm_h
dm_15_6     1.08154000E+03     2.22490000E+00     dm_h
dm_15_8     1.08064000E+03     2.22490000E+00     dm_h
dm_15_10     1.07924000E+03     2.22490000E+00     dm_h
dm_16_4     1.07731000E+03     2.22490000E+00     dm_h
dm_16_6     1.07821000E+03     2.22490000E+00     dm_h
dm_16_8     1.07721000E+03     2.22490000E+00     dm_h
dm_16_10     1.07591000E+03     2.22490000E+00     dm_h
dm_17_4     1.07722000E+03     2.22490000E+00     dm_h
dm_17_6     1.07802000E+03     2.22490000E+00     dm_h
dm_17_8     1.07702000E+03     2.22490000E+00     dm_h
dm_17_10     1.07572000E+03     2.22490000E+00     dm_h
dm_18_4     1.07702000E+03     2.22490000E+00     dm_h
dm_18_6     1.07792000E+03     2.22490000E+00     dm_h
dm_18_8     1.07692000E+03     2.22490000E+00     dm_h
dm_18_10     1.07562000E+03     2.22490000E+00     dm_h
dm_7_4     1.07728000E+03     2.22490000E+00     dm_h
dm_7_6     1.07828000E+03     2.22490000E+00     dm_h
dm_7_8     1.07718000E+03     2.22490000E+00     dm_h
dm_7_10     1.07588000E+03     2.22490000E+00     dm_h
dm_8_4     1.07767000E+03     2.22490000E+00     dm_h
dm_8_6     1.07787000E+03     2.22490000E+00     dm_h
dm_8_8     1.07577000E+03     2.22490000E+00     dm_h
dm_8_10     1.07577000E+03     2.22490000E+00     dm_h
dm_9_4     1.07742000E+03     2.22490000E+00     dm_h
dm_9_6     1.07792000E+03     2.22490000E+00     dm_h
dm_9_8     1.07532000E+03     2.22490000E+00     dm_h
dm_9_10     1.07562000E+03     2.22490000E+00     dm_h
prf_19_4     1.13072000E+03     1.81975000E+00     prf_h
prf_19_7     1.12862000E+03     1.81975000E+00     prf_h
prf_19_10     1.12862000E+03     1.81975000E+00     prf_h
prf_20_4     1.12989000E+03     1.81975000E+00     prf_h
prf_20_7     1.12709000E+03     1.81975000E+00     prf_h
prf_20_10     1.12699000E+03     1.81975000E+00     prf_h
prf_21_4     1.12989000E+03     1.81975000E+00     prf_h
prf_21_7     1.12709000E+03     1.81975000E+00     prf_h
prf_21_10     1.12699000E+03     1.81975000E+00     prf_h
prf_22_4     1.14032000E+03     1.81975000E+00     prf_h
prf_22_7     1.13782000E+03     1.81975000E+00     prf_h
prf_22_10     1.13742000E+03     1.81975000E+00     prf_h
prf_23_4     1.14260000E+03     1.81975000E+00     prf_h
prf_23_7     1.14035000E+03     1.81975000E+00     prf_h
prf_23_10     1.13927000E+03     1.81975000E+00     prf_h
prf_24_4     1.14565000E+03     1.81975000E+00     prf_h
prf_24_7     1.14295000E+03     1.81975000E+00     prf_h
prf_24_10     1.14265000E+03     1.81975000E+00     prf_h
prf_25_4     1.13737000E+03     1.81975000E+00     prf_h
prf_25_7     1.13617000E+03     1.81975000E+00     prf_h
prf_25_10     1.13577000E+03     1.81975000E+00     prf_h
prf_26_4     1.08630000E+03     1.81975000E+00     prf_h
prf_26_7     1.08390000E+03     1.81975000E+00     prf_h
prf_26_10     1.08290000E+03     1.81975000E+00     prf_h
prf_27_4     1.08653000E+03     1.81975000E+00     prf_h
prf_27_7     1.08373000E+03     1.81975000E+00     prf_h
prf_27_10     1.08293000E+03     1.81975000E+00     prf_h
prf_28_4     1.12683000E+03     1.81975000E+00     prf_h
prf_28_7     1.12458000E+03     1.81975000E+00     prf_h
prf_28_10     1.12475000E+03     1.81975000E+00     prf_h
prf_29_4     1.12422000E+03     1.81975000E+00     prf_h
prf_29_7     1.12202000E+03     1.81975000E+00     prf_h
prf_29_10     1.12222000E+03     1.81975000E+00     prf_h
prf_30_4     1.12618000E+03     1.81975000E+00     prf_h
prf_30_7     1.12426000E+03     1.81975000E+00     prf_h
prf_30_10     1.12426000E+03     1.81975000E+00     prf_h
prf_31_4     1.12132000E+03     1.81975000E+00     prf_h
prf_31_7     1.11922000E+03     1.81975000E+00     prf_h
prf_31_10     1.11912000E+03     1.81975000E+00     prf_h
prf_32_4     1.12185000E+03     1.81975000E+00     prf_h
prf_32_7     1.11935000E+03     1.81975000E+00     prf_h
prf_32_10     1.11955000E+03     1.81975000E+00     prf_h
prf_33_4     1.11771000E+03     1.81975000E+00     prf_h
prf_33_7     1.11491000E+03     1.81975000E+00     prf_h
prf_33_10     1.11471000E+03     1.81975000E+00     prf_h
prf_34_4     1.12777000E+03     1.81975000E+00     prf_h
prf_34_7     1.12547000E+03     1.81975000E+00     prf_h
prf_34_10     1.12537000E+03     1.81975000E+00     prf_h
prf_35_7     1.13816000E+03     1.81975000E+00     prf_h
prf_35_10     1.13756000E+03     1.81975000E+00     prf_h
usgs_61_1     1.08689000E+03     1.51451667E+00     usgs_h
usgs_61_4     1.08637000E+03     1.51451667E+00     usgs_h
usgs_61_6     1.08971000E+03     1.51451667E+00     usgs_h
usgs_61_11     1.08765000E+03     1.51451667E+00     usgs_h
usgs_62_1     1.07945000E+03     1.51451667E+00     usgs_h
usgs_62_2     1.07930000E+03     1.51451667E+00     usgs_h
usgs_62_3     1.07920000E+03     1.51451667E+00     usgs_h
usgs_62_4     1.08104000E+03     1.51451667E+00     usgs_h
usgs_62_5     1.08174000E+03     1.51451667E+00     usgs_h
usgs_62_6     1.08218000E+03     1.51451667E+00     usgs_h
usgs_62_7     1.08184000E+03     1.51451667E+00     usgs_h
usgs_62_8     1.08134000E+03     1.51451667E+00     usgs_h
usgs_62_9     1.08013000E+03     1.51451667E+00     usgs_h
usgs_62_12     1.07918000E+03     1.51451667E+00     usgs_h
usgs_63_6     1.09547000E+03     1.51451667E+00     usgs_h
vp_64_1     1.07425000E+03     2.25200000E+00     vp_h
vp_64_4     1.07587000E+03     2.25200000E+00     vp_h
vp_64_5     1.07643000E+03     2.25200000E+00     vp_h
vp_64_6     1.07679000E+03     2.25200000E+00     vp_h
vp_64_7     1.07633000E+03     2.25200000E+00     vp_h
vp_64_8     1.07501000E+03     2.25200000E+00     vp_h
vp_64_9     1.07445000E+03     2.25200000E+00     vp_h
vp_64_10     1.07418000E+03     2.25200000E+00     vp_h
vp_64_11     1.07442000E+03     2.25200000E+00     vp_h
vp_64_12     1.07407000E+03     2.25200000E+00     vp_h
vp_65_1     1.07476000E+03     2.25200000E+00     vp_h
vp_65_4     1.07659000E+03     2.25200000E+00     vp_h
vp_65_5     1.07692000E+03     2.25200000E+00     vp_h
vp_65_6     1.07722000E+03     2.25200000E+00     vp_h
vp_65_7     1.07696000E+03     2.25200000E+00     vp_h
vp_65_8     1.07611000E+03     2.25200000E+00     vp_h
vp_65_9     1.07538000E+03     2.25200000E+00     vp_h
vp_65_10     1.07509000E+03     2.25200000E+00     vp_h
vp_65_11     1.07494000E+03     2.25200000E+00     vp_h
vp_65_12     1.07484000E+03     2.25200000E+00     vp_h
vp_66_1     1.08856000E+03     2.25200000E+00     vp_h
vp_66_3     1.08840000E+03     2.25200000E+00     vp_h
vp_66_4     1.09006000E+03     2.25200000E+00     vp_h
vp_66_5     1.09043000E+03     2.25200000E+00     vp_h
vp_66_6     1.09064000E+03     2.25200000E+00     vp_h
vp_66_7     1.08990000E+03     2.25200000E+00     vp_h
vp_66_8     1.08893000E+03     2.25200000E+00     vp_h
vp_66_9     1.08860000E+03     2.25200000E+00     vp_h
vp_66_10     1.08855000E+03     2.25200000E+00     vp_h
vp_66_11     1.08860000E+03     2.25200000E+00     vp_h
vp_66_12     1.08858000E+03     2.25200000E+00     vp_h
vp_67_1     1.08818000E+03     2.25200000E+00     vp_h
vp_67_3     1.08802000E+03     2.25200000E+00     vp_h
vp_67_4     1.08969000E+03     2.25200000E+00     vp_h
vp_67_5     1.08995000E+03     2.25200000E+00     vp_h
vp_67_6     1.09016000E+03     2.25200000E+00     vp_h
vp_67_7     1.08931000E+03     2.25200000E+00     vp_h
vp_67_8     1.08841000E+03     2.25200000E+00     vp_h
vp_67_9     1.08819000E+03     2.25200000E+00     vp_h
vp_67_10     1.08817000E+03     2.25200000E+00     vp_h
vp_67_11     1.08825000E+03     2.25200000E+00     vp_h
vp_67_12     1.08823000E+03     2.25200000E+00     vp_h
vp_68_1     1.06960000E+03     2.25200000E+00     vp_h
vp_68_3     1.06944000E+03     2.25200000E+00     vp_h
vp_68_4     1.07035000E+03     2.25200000E+00     vp_h
vp_68_5     1.07126000E+03     2.25200000E+00     vp_h
vp_68_6     1.07148000E+03     2.25200000E+00     vp_h
vp_68_7     1.07131000E+03     2.25200000E+00     vp_h
vp_68_8     1.07100000E+03     2.25200000E+00     vp_h
vp_68_9     1.07063000E+03     2.25200000E+00     vp_h
vp_68_10     1.07077000E+03     2.25200000E+00     vp_h
vp_68_11     1.07084000E+03     2.25200000E+00     vp_h
vp_68_12     1.07076000E+03     2.25200000E+00     vp_h
vp_69_1     1.07254000E+03     2.25200000E+00     vp_h
vp_69_3     1.07262000E+03     2.25200000E+00     vp_h
vp_69_4     1.07333000E+03     2.25200000E+00     vp_h
vp_69_5     1.07309000E+03     2.25200000E+00     vp_h
vp_69_6     1.07311000E+03     2.25200000E+00     vp_h
vp_69_7     1.07291000E+03     2.25200000E+00     vp_h
vp_69_8     1.07260000E+03     2.25200000E+00     vp_h
vp_69_9     1.07233000E+03     2.25200000E+00     vp_h
vp_69_10     1.07246000E+03     2.25200000E+00     vp_h
vp_69_11     1.07248000E+03     2.25200000E+00     vp_h
vp_69_12     1.07248000E+03     2.25200000E+00     vp_h
wisa_2_6     1.08793000E+03     2.16680000E+00     wisa_h
wisa_2_7     1.08761000E+03     2.16680000E+00     wisa_h
wisa_2_8     1.08740000E+03     2.16680000E+00     wisa_h
wisa_2_9     1.08730000E+03     2.16680000E+00     wisa_h
wisa_2_10     1.08746000E+03     2.16680000E+00     wisa_h
wisa_2_11     1.08751000E+03     2.16680000E+00     wisa_h
wisa_2_12     1.08747000E+03     2.16680000E+00     wisa_h
wisa_3_6     1.08846000E+03     2.16680000E+00     wisa_h
wisa_3_7     1.08825000E+03     2.16680000E+00     wisa_h
wisa_3_8     1.08810000E+03     2.16680000E+00     wisa_h
wisa_3_9     1.08803000E+03     2.16680000E+00     wisa_h
wisa_3_10     1.08816000E+03     2.16680000E+00     wisa_h
wisa_3_11     1.08821000E+03     2.16680000E+00     wisa_h
wisa_3_12     1.08814000E+03     2.16680000E+00     wisa_h
wisa_4_7     1.08983000E+03     2.16680000E+00     wisa_h
wisa_4_8     1.08940000E+03     2.16680000E+00     wisa_h
wisa_4_9     1.08921000E+03     2.16680000E+00     wisa_h
wisa_4_10     1.08926000E+03     2.16680000E+00     wisa_h
wisa_4_11     1.08937000E+03     2.16680000E+00     wisa_h
wisa_4_12     1.08928000E+03     2.16680000E+00     wisa_h
wisa_5_6     1.09105000E+03     2.16680000E+00     wisa_h
wisa_5_7     1.09061000E+03     2.16680000E+00     wisa_h
wisa_5_8     1.09022000E+03     2.16680000E+00     wisa_h
wisa_5_9     1.09005000E+03     2.16680000E+00     wisa_h
wisa_5_10     1.09023000E+03     2.16680000E+00     wisa_h
wisa_5_11     1.09032000E+03     2.16680000E+00     wisa_h
wisa_5_12     1.09021000E+03     2.16680000E+00     wisa_h
wisa_6_6     1.08958000E+03     2.16680000E+00     wisa_h
wisa_6_7     1.08928000E+03     2.16680000E+00     wisa_h
wisa_6_8     1.08904000E+03     2.16680000E+00     wisa_h
wisa_6_9     1.08891000E+03     2.16680000E+00     wisa_h
wisa_6_10     1.08908000E+03     2.16680000E+00     wisa_h
wisa_6_11     1.08916000E+03     2.16680000E+00     wisa_h
wisa_6_12     1.08908000E+03     2.16680000E+00     wisa_h
lake_82_11     1.10675000E+03     3.98234000E+00     lake_h
lake_83_11     1.08870000E+03     3.98234000E+00     lake_h
lake_84_11     1.02520000E+03     3.98234000E+00     lake_h
lake_85_11     1.07420000E+03     3.98234000E+00     lake_h
lake_86_11     1.07250000E+03     3.98234000E+00     lake_h
lake_87_11     1.06660000E+03     3.98234000E+00     lake_h
lake_88_11     1.07610000E+03     3.98234000E+00     lake_h
lake_89_11     1.11460000E+03     3.98234000E+00     lake_h
lpri39_11     4.84400500E+00     2.68691506E+01     q_synoptic
lprhoov_11     6.31700200E+00     2.06038086E+01     q_synoptic
bearq_11     1.03440000E+01     1.25825889E+01     q_synoptic
springq_11     4.43700200E+00     2.93338385E+01     q_synoptic
ditch2_11     5.85500000E+00     2.22295986E+01     q_synoptic
noname_11     1.47099500E+00     8.84804503E+01     q_synoptic
swcan3_11     1.92700000E+01     6.75424494E+00     q_synoptic
swcan2_11     1.48380000E+01     8.77168756E+00     q_synoptic
swcan1_11     9.09599500E+00     1.43089678E+01     q_synoptic
lprken_11     1.48416700E+00     8.76951852E+01     q_synoptic
lpreis_1     5.18168500E+00     1.96036424E+01     q_eisenhower
lpreis_2     1.18020800E+01     0.00000000E+00     q_eisenhower
lpreis_3     7.52501700E+00     0.00000000E+00     q_eisenhower
lpreis_4     5.96559000E+00     1.70276368E+01     q_eisenhower
lpreis_5     4.42778600E+00     2.29414656E+01     q_eisenhower
lpreis_6     4.21081500E+00     2.41235723E+01     q_eisenhower
lpreis_7     2.42869000E+00     4.18249756E+01     q_eisenhower
lpreis_8     1.59946700E+00     6.35085938E+01     q_eisenhower
lpreis_9     1.47541500E+00     6.88483579E+01     q_eisenhower
lpreis_10     2.24368400E+00     4.52737106E+01     q_eisenhower
lpreis_11     2.48139700E+00     4.09365773E+01     q_eisenhower
lpreis_12     6.68864800E+00     1.51869107E+01     q_eisenhower
 rm1    0.000000        1.000000      regul_rch
 rm3    0.000000        1.000000      regul_rch
 rm4    0.000000        1.000000      regul_rch
 rm5    0.000000        1.000000      regul_rch
 rm6    0.000000        1.000000      regul_rch
 rm7    0.000000        1.000000      regul_rch
 rm8    0.000000        1.000000      regul_rch
 rm9    0.000000        1.000000      regul_rch
 rm10    0.000000        1.000000      regul_rch
 rm11    0.000000        1.000000      regul_rch
 ss   -2.721246        1.000000      regul_stor
 sy  -0.8239087        1.000000      regul_stor
 i2k1    0.000000        1.925500      regul_kp2
 i2k2    0.000000        1.409900      regul_kp2
 i2k3    0.000000        1.925500      regul_kp2
 i2k4    0.000000        1.191000      regul_kp2
 i2k5    0.000000        1.409900      regul_kp2
 i2k6    0.000000        1.925500      regul_kp2
 i2k7    0.000000        1.191000      regul_kp2
 i2k8    0.000000        1.409900      regul_kp2
 i2k9    0.000000        1.925500      regul_kp2
 i2k10    0.000000        1.191000      regul_kp2
 i2k11    0.000000        1.409900      regul_kp2
 i2k12    0.000000        1.925500      regul_kp2
 i2k13    0.000000        1.190100      regul_kp2
 i2k14    0.000000        1.407100      regul_kp2
 i2k15    0.000000        1.909200      regul_kp2
 i2k16    0.000000        1.187700      regul_kp2
 i2k17    0.000000        1.400500      regul_kp2
 i2k18    0.000000        1.914100      regul_kp2
 i2k19    0.000000        1.183300      regul_kp2
 i2k20    0.000000        1.400500      regul_kp2
 i2k21    0.000000        1.909200      regul_kp2
 i2k22    0.000000        1.889700      regul_kp2
 i2k23    0.000000        1.752800      regul_kp2
 i2k24    0.000000        1.415800      regul_kp2
 i2k25    0.000000        1.209300      regul_kp2
 i2k26    0.000000        1.540800      regul_kp2
 i2k27    0.000000        1.889700      regul_kp2
 i2k28    0.000000        1.752800      regul_kp2
 i2k29    0.000000        1.415800      regul_kp2
 i2k30    0.000000        1.209300      regul_kp2
 i2k31    0.000000        1.925500      regul_kp2
 i2k32    0.000000        1.283000      regul_kp2
 i2k33    0.000000        1.540800      regul_kp2
 i2k34    0.000000        1.889700      regul_kp2
 i2k35    0.000000        1.752800      regul_kp2
 i2k36    0.000000        1.415800      regul_kp2
 i2k37    0.000000        1.209300      regul_kp2
 i2k38    0.000000        1.409900      regul_kp2
 i2k39    0.000000        1.925500      regul_kp2
 i2k40    0.000000        1.283000      regul_kp2
 i2k41    0.000000        1.540800      regul_kp2
 i2k42    0.000000        1.889700      regul_kp2
 i2k43    0.000000        1.752800      regul_kp2
 i2k44    0.000000        1.415800      regul_kp2
 i2k45    0.000000        1.219800      regul_kp2
 i2k46    0.000000        1.409900      regul_kp2
 i2k47    0.000000        1.925500      regul_kp2
 i2k48    0.000000        1.283000      regul_kp2
 i2k49    0.000000        1.540800      regul_kp2
 i2k50    0.000000        1.889700      regul_kp2
 i2k51    0.000000        1.752800      regul_kp2
 i2k52    0.000000        1.444800      regul_kp2
 i2k53    0.000000        1.227200      regul_kp2
 i2k54    0.000000        1.409900      regul_kp2
 i2k55    0.000000        1.925500      regul_kp2
 i2k56    0.000000        1.170700      regul_kp2
 i2k57    0.000000        1.371500      regul_kp2
 i2k58    0.000000        1.812000      regul_kp2
 i2k59    0.000000        1.265700      regul_kp2
 i2k60    0.000000        1.491400      regul_kp2
 i2k61    0.000000        1.751400      regul_kp2
 i2k62    0.000000        1.752800      regul_kp2
 i2k63    0.000000        1.440100      regul_kp2
 i2k64    0.000000        1.227200      regul_kp2
 i2k65    0.000000        1.407100      regul_kp2
 i2k66    0.000000        1.909200      regul_kp2
 i2k67    0.000000        1.250200      regul_kp2
 i2k68    0.000000        1.451200      regul_kp2
 i2k69    0.000000        1.772200      regul_kp2
 i2k70    0.000000        1.752800      regul_kp2
 i2k71    0.000000        1.444800      regul_kp2
 i2k72    0.000000        1.400500      regul_kp2
 i2k73    0.000000        1.238700      regul_kp2
 i2k74    0.000000        1.914100      regul_kp2
 i2k75    0.000000        1.230900      regul_kp2
 i2k76    0.000000        1.451200      regul_kp2
 i2k77    0.000000        1.751400      regul_kp2
 i2k78    0.000000        1.752800      regul_kp2
 i2k79    0.000000        1.487500      regul_kp2
 i2k80    0.000000        1.400500      regul_kp2
 i2k81    0.000000        1.909200      regul_kp2
 i2k82    0.000000        1.409900      regul_kp2
 i2k83    0.000000        1.344300      regul_kp2
 i2k84    0.000000        1.219600      regul_kp2
 i2k85    0.000000        1.889700      regul_kp2
 i2k86    0.000000        1.540800      regul_kp2
 i2k87    0.000000        1.283000      regul_kp2
 i2k88    0.000000        1.344300      regul_kp2
 i2k89    0.000000        1.409900      regul_kp2
 i2k90    0.000000        1.344300      regul_kp2
 i2k91    0.000000        1.752800      regul_kp2
 i2k92    0.000000        1.889700      regul_kp2
 i2k93    0.000000        1.540800      regul_kp2
 i2k94    0.000000        1.283000      regul_kp2
 i2k95    0.000000        1.925500      regul_kp2
 i2k96    0.000000        1.344300      regul_kp2
 i2k97    0.000000        1.409900      regul_kp2
 i2k98    0.000000        1.344300      regul_kp2
 i2k99    0.000000        1.415800      regul_kp2
 i2k100    0.000000        1.752800      regul_kp2
 i2k101    0.000000        1.889700      regul_kp2
 i2k102    0.000000        1.540800      regul_kp2
 i2k103    0.000000        1.283000      regul_kp2
 i2k104    0.000000        1.409900      regul_kp2
 i2k105    0.000000        1.925500      regul_kp2
 i2k106    0.000000        1.344300      regul_kp2
 i2k107    0.000000        1.409900      regul_kp2
 i2k108    0.000000        1.344300      regul_kp2
 i2k109    0.000000        1.209300      regul_kp2
 i2k110    0.000000        1.415800      regul_kp2
 i2k111    0.000000        1.752800      regul_kp2
 i2k112    0.000000        1.889700      regul_kp2
 i2k113    0.000000        1.540800      regul_kp2
 i2k114    0.000000        1.298500      regul_kp2
 i2k115    0.000000        1.409900      regul_kp2
 i2k116    0.000000        1.925500      regul_kp2
 i2k117    0.000000        1.344300      regul_kp2
 i2k118    0.000000        1.409900      regul_kp2
 i2k119    0.000000        1.344300      regul_kp2