pcf
* control data
restart estimation
9 1837 5 0 9
1  1  double  point  1  0  0
25.0   -3.0    0.3    0.03    -10  999	  LAMFORGIVE
3.000000e+000  3.000000e+000  1.000000e-003
1.000000e-001 noaui
0  1.000000e-004  3  3  1.000000e-004  3
1  1  1 1  nojcosaveitn reisaveitn PARSAVEITN
* singular value decomposition
1
8 5e-7
0
* parameter groups
Kh     relative   1.000000e-002  0.000000e+000  switch  2.000000e+000  parabolic
Base   relative   1.000000e-002  0.000000e+000  switch  2.000000e+000  parabolic
Khi    relative   1.000000e-002  0.000000e+000  switch  2.000000e+000  parabolic
Rch    relative   1.000000e-002  0.000000e+000  switch  2.000000e+000  parabolic
Res    relative   1.000000e-002  0.000000e+000  switch  2.000000e+000  parabolic
* parameter data
k___________	log   factor   0.5407786      .3	 30	kh     1.0      0.0 1
base________   fixed  factor    750.0000      75	 7500	base   1.0      0.0 1
kcollapse___	log   factor   0.2734918      .1	 10	khi    1.0      0.0 1
klincoln____	log   factor    1.000000      1	           100	khi    1.0      0.0 1
rcollapse___	log   factor   6.9807971E-05  .00004	 .004	rch    -1.0     0.0 1
recharge____	log   factor   3.2695966E-04  .0001	 .01	rch    -1.0     0.0 1
rlincoln____	log   factor   1.0000000E-04  .0001	 .01	rch    -1.0     0.0 1
cdrainage___	log   factor    4.887276      .01	 100	res    1.0      0.0 1
cstream_____	log   factor    10.00000      .01	 10	res    1.0      0.0 1
* observation groups
head_longtrm
head_good
head_lake
head_fair
head_poor
flux_USGSgag
flux_USGSpar
flux_USGSmis
flux_USFS
* observation data
TA0006_longtrm                    1440.13                 1        head_longtrm
TA0009_longtrm                    1559.31                 1        head_longtrm
TA0001_longtrm                    1190.72                 1        head_longtrm
TA0217_5_msmts                    1342.52                 1        head_longtrm
RU0060_QW_Weightas~1                 1071                 1        head_longtrm
VB160_verygood                    1445.34                 1        head_longtrm
SX458_verygood                    1384.63                 1        head_longtrm
CZ073_verygood                    1239.47                 1        head_longtrm
TAY748_good                        1367.3               0.5        head_good
TAY2131_good                       1247.5               0.5        head_good
TAY2410_good                      1358.38               0.5        head_good
TAY2886_good                      1387.55               0.5        head_good
UF398_good                        1665.24               0.5        head_good
HL672_good                        1656.25               0.5        head_good
RD982_good                        1675.05               0.5        head_good
MN825_good                        1634.74               0.5        head_good
TD409_good                         1675.1               0.5        head_good
OG034_good                        1669.08               0.5        head_good
QY679_good                        1659.74               0.5        head_good
TX177_good                        1666.33               0.5        head_good
UQ395_good                        1664.68               0.5        head_good
VB538_good                        1654.15               0.5        head_good
VB603_good                        1654.15               0.5        head_good
KathrynLake                          1457               0.1        head_lake
NonaLake                             1440               0.1        head_lake
Polacklake                           1442               0.1        head_lake
SpruceLake                           1340               0.1        head_lake
RichterLk                            1359               0.1        head_lake
Birchlake                            1386               0.1        head_lake
Hortonlake                           1416               0.1        head_lake
HullsLake                            1446               0.1        head_lake
Kleutch                              1447               0.1        head_lake
Keyeslake                            1444               0.1        head_lake
Scooflake                            1447               0.1        head_lake
Lake19                               1464               0.1        head_lake
Lake30                               1456               0.1        head_lake
SalemLake                            1421               0.1        head_lake
Pickerellake                         1442               0.1        head_lake
SackettLake                          1469               0.1        head_lake
Washingtonflowage                    1443               0.1        head_lake
Esadorelake                          1436               0.1        head_lake
Schoolhouselake                      1436               0.1        head_lake
LeutheyLake                          1449               0.1        head_lake
LostLake                             1330               0.1        head_lake
SouthTwinLake                        1445               0.1        head_lake
NorthTwinLake                        1445               0.1        head_lake
Clarklake                            1490               0.1        head_lake
HorseshoeLake                        1489               0.1        head_lake
McNamarLake                          1491               0.1        head_lake
Mudlake                              1550               0.1        head_lake
Stonelake                            1617               0.1        head_lake
JamesLake                            1709               0.1        head_lake
Sharperlake                          1699               0.1        head_lake
Harperlake                           1695               0.1        head_lake
Woodlake                             1612               0.1        head_lake
Wellingtonlake                       1584               0.1        head_lake
Blacklake                            1629               0.1        head_lake
Skinnerlake                          1640               0.1        head_lake
Chelsealake                          1530               0.1        head_lake
Bullheadlake                         1537               0.1        head_lake
Shearer                              1575               0.1        head_lake
Gibbslake                            1532               0.1        head_lake
LittleChelsealake                    1530               0.1        head_lake
Croninlake                           1453               0.1        head_lake
Basslake                             1735               0.1        head_lake
Worcesterlake                        1549               0.1        head_lake
Mudlake2                             1300               0.1        head_lake
Bigbrienslke                         1631               0.1        head_lake
Ltlbrienlke                          1625               0.1        head_lake
McGeelake                            1279               0.1        head_lake
Lakelaverne                          1300               0.1        head_lake
Shamrocklake                         1356               0.1        head_lake
Pikelake                             1097               0.1        head_lake
Withrowlake                          1198               0.1        head_lake
Chapmanlake                          1081               0.1        head_lake
Junelake                             1407               0.1        head_lake
UO129_fair                        1460.36              0.05        head_fair
VJ021_fair                        1364.64              0.05        head_fair
VE234_fair                        1394.13              0.05        head_fair
EQ503_fair                        1436.32              0.05        head_fair
UY741_fair                        1428.13              0.05        head_fair
UX215_fair                        1229.48              0.05        head_fair
UO173_fair                        1433.29              0.05        head_fair
GL770_fair                        1260.17              0.05        head_fair
TAY158_fair                       1224.21              0.05        head_fair
TAY160_fair                       1384.73              0.05        head_fair
TAY166_fair                       1250.29              0.05        head_fair
TAY180_fair                       1234.36              0.05        head_fair
TAY188_fair                       1270.43              0.05        head_fair
TAY194_fair                       1266.95              0.05        head_fair
TAY207_fair                       1346.28              0.05        head_fair
TAY242_fair                       1284.32              0.05        head_fair
TAY286_fair                       1513.35              0.05        head_fair
TAY290_fair                       1302.81              0.05        head_fair
TAY296_fair                       1284.32              0.05        head_fair
TAY298_fair                       1159.88              0.05        head_fair
TAY313_fair                       1258.04              0.05        head_fair
TAY321_fair                        1402.4              0.05        head_fair
TAY358_fair                       1468.03              0.05        head_fair
TAY362_fair                       1223.86              0.05        head_fair
TAY392_fair                       1393.02              0.05        head_fair
TAY394_fair                       1333.72              0.05        head_fair
TAY410_fair                       1241.11              0.05        head_fair
TAY422_fair                       1237.17              0.05        head_fair
TAY423_fair                       1265.24              0.05        head_fair
TAY428_fair                        1218.2              0.05        head_fair
TAY430_fair                       1341.54              0.05        head_fair
TAY449_fair                       1228.64              0.05        head_fair
TAY560_fair                       1232.09              0.05        head_fair
TAY578_fair                       1227.21              0.05        head_fair
TAY583_fair                       1268.29              0.05        head_fair
TAY609_fair                       1225.89              0.05        head_fair
TAY639_fair                       1405.77              0.05        head_fair
TAY653_fair                       1386.18              0.05        head_fair
TAY666_fair                       1232.01              0.05        head_fair
TAY705_fair                       1386.21              0.05        head_fair
TAY707_fair                        1435.5              0.05        head_fair
TAY710_fair                       1253.28              0.05        head_fair
TAY759_fair                       1461.57              0.05        head_fair
TAY760_fair                       1348.36              0.05        head_fair
TAY768_fair                       1438.24              0.05        head_fair
TAY796_fair                       1412.42              0.05        head_fair
TAY801_fair                       1423.45              0.05        head_fair
TAY829_fair                       1553.79              0.05        head_fair
TAY839_fair                       1344.43              0.05        head_fair
TAY848_fair                       1329.54              0.05        head_fair
TAY860_fair                       1428.38              0.05        head_fair
TAY881_fair                       1282.31              0.05        head_fair
TAY918_fair                       1441.13              0.05        head_fair
TAY921_fair                       1478.15              0.05        head_fair
TAY935_fair                       1232.89              0.05        head_fair
TAY939_fair                       1457.43              0.05        head_fair
TAY947_fair                       1257.25              0.05        head_fair
TAY970_fair                       1268.01              0.05        head_fair
TAY982_fair                       1251.59              0.05        head_fair
TAY1040_fair                      1244.62              0.05        head_fair
TAY1085_fair                      1468.23              0.05        head_fair
TAY1095_fair                      1235.58              0.05        head_fair
TAY1141_fair                      1504.85              0.05        head_fair
TAY1144_fair                      1184.02              0.05        head_fair
TAY1152_fair                      1285.95              0.05        head_fair
TAY1173_fair                      1427.72              0.05        head_fair
TAY1196_fair                      1389.97              0.05        head_fair
TAY1231_fair                      1500.18              0.05        head_fair
TAY1236_fair                      1378.45              0.05        head_fair
TAY1249_fair                      1462.75              0.05        head_fair
TAY1285_fair                      1333.49              0.05        head_fair
TAY1305_fair                      1507.62              0.05        head_fair
TAY1322_fair                      1347.88              0.05        head_fair
TAY1326_fair                      1234.97              0.05        head_fair
TAY1328_fair                      1374.85              0.05        head_fair
TAY1367_fair                      1371.28              0.05        head_fair
TAY1368_fair                      1373.63              0.05        head_fair
TAY1393_fair                      1386.55              0.05        head_fair
TAY1399_fair                      1248.88              0.05        head_fair
TAY1408_fair                      1215.22              0.05        head_fair
TAY1463_fair                      1299.84              0.05        head_fair
TAY1474_fair                      1227.07              0.05        head_fair
TAY1487_fair                      1572.25              0.05        head_fair
TAY1516_fair                      1603.23              0.05        head_fair
TAY1548_fair                      1373.51              0.05        head_fair
TAY1568_fair                       1191.1              0.05        head_fair
TAY1581_fair                      1207.04              0.05        head_fair
TAY1586_fair                      1161.61              0.05        head_fair
TAY1591_fair                      1278.92              0.05        head_fair
TAY1627_fair                      1169.12              0.05        head_fair
TAY1698_fair                      1436.97              0.05        head_fair
TAY1708_fair                      1281.04              0.05        head_fair
TAY1733_fair                      1166.33              0.05        head_fair
TAY1744_fair                      1245.94              0.05        head_fair
TAY1761_fair                      1332.39              0.05        head_fair
TAY1808_fair                      1395.34              0.05        head_fair
TAY1882_fair                      1273.04              0.05        head_fair
TAY1891_fair                      1163.56              0.05        head_fair
TAY1892_fair                      1275.37              0.05        head_fair
TAY1947_fair                      1418.45              0.05        head_fair
TAY1949_fair                      1314.23              0.05        head_fair
TAY1960_fair                      1409.46              0.05        head_fair
TAY1962_fair                      1406.55              0.05        head_fair
TAY1995_fair                      1341.39              0.05        head_fair
TAY2036_fair                      1232.12              0.05        head_fair
TAY2041_fair                      1226.33              0.05        head_fair
TAY2061_fair                      1379.28              0.05        head_fair
TAY2062_fair                      1433.79              0.05        head_fair
TAY2073_fair                      1248.85              0.05        head_fair
TAY2113_fair                      1436.96              0.05        head_fair
TAY2123_fair                      1240.39              0.05        head_fair
TAY2161_fair                      1240.85              0.05        head_fair
TAY2174_fair                      1512.01              0.05        head_fair
TAY2186_fair                      1460.24              0.05        head_fair
TAY2240_fair                      1179.51              0.05        head_fair
TAY2284_fair                      1467.46              0.05        head_fair
TAY2316_fair                      1218.68              0.05        head_fair
TAY2361_fair                      1219.37              0.05        head_fair
TAY2420_fair                      1385.45              0.05        head_fair
TAY2462_fair                      1428.68              0.05        head_fair
TAY2500_fair                      1249.46              0.05        head_fair
TAY2527_fair                      1449.53              0.05        head_fair
TAY2528_fair                      1468.29              0.05        head_fair
TAY2537_fair                      1208.81              0.05        head_fair
TAY2540_fair                      1374.86              0.05        head_fair
TAY2588_fair                      1419.21              0.05        head_fair
TAY2592_fair                      1315.87              0.05        head_fair
TAY2630_fair                      1206.38              0.05        head_fair
TAY2637_fair                      1414.81              0.05        head_fair
TAY2639_fair                      1333.64              0.05        head_fair
TAY2644_fair                      1242.94              0.05        head_fair
TAY2654_fair                      1160.76              0.05        head_fair
TAY2676_fair                      1249.09              0.05        head_fair
TAY2705_fair                      1344.17              0.05        head_fair
TAY2749_fair                      1250.53              0.05        head_fair
TAY2764_fair                      1419.57              0.05        head_fair
TAY2771_fair                      1432.22              0.05        head_fair
TAY2787_fair                      1276.36              0.05        head_fair
TAY2792_fair                      1285.07              0.05        head_fair
TAY2803_fair                       1481.6              0.05        head_fair
TAY2812_fair                      1291.96              0.05        head_fair
TAY2829_fair                      1448.12              0.05        head_fair
TAY2848_fair                      1259.76              0.05        head_fair
TAY2863_fair                      1425.86              0.05        head_fair
TAY2869_fair                       1228.4              0.05        head_fair
TAY2880_fair                      1395.49              0.05        head_fair
TAY2881_fair                      1168.34              0.05        head_fair
TAY2896_fair                      1491.08              0.05        head_fair
TAY2916_fair                      1180.94              0.05        head_fair
TAY2941_fair                      1399.18              0.05        head_fair
UK476_fair                        1147.27              0.05        head_fair
GC554_fair                        1213.07              0.05        head_fair
UD953_fair                        1289.04              0.05        head_fair
UD955_fair                        1276.71              0.05        head_fair
UK480_fair                        1627.78              0.05        head_fair
IY617_fair                        1599.82              0.05        head_fair
TO645_fair                         1354.8              0.05        head_fair
UA439_fair                        1620.59              0.05        head_fair
RD966_fair                        1624.09              0.05        head_fair
GZ829_fair                        1641.84              0.05        head_fair
TD410_fair                         1665.1              0.05        head_fair
LF339_fair                        1430.93              0.05        head_fair
unknown1_fair                     1374.18              0.05        head_fair
unknown2_fair                     1275.75              0.05        head_fair
LI785_fair                        1363.01              0.05        head_fair
RD395_fair                        1365.49              0.05        head_fair
PF2415_fair                       1361.86              0.05        head_fair
PF2416_fair                       1372.11              0.05        head_fair
PF2417_fair                       1371.32              0.05        head_fair
PF2418_fair                       1329.65              0.05        head_fair
PF2432_fair                       1463.88              0.05        head_fair
PF2433_fair                       1453.54              0.05        head_fair
PF2434_fair                       1455.03              0.05        head_fair
PF2435_fair                       1406.21              0.05        head_fair
PF2436_fair                       1415.68              0.05        head_fair
PF2437_fair                       1452.17              0.05        head_fair
PF2438_fair                       1457.13              0.05        head_fair
PF2439_fair                       1426.37              0.05        head_fair
PF2440_fair                       1456.33              0.05        head_fair
PF2441_fair                       1459.41              0.05        head_fair
PF2442_fair                       1462.62              0.05        head_fair
PF2443_fair                       1388.75              0.05        head_fair
PF2444_fair                       1388.05              0.05        head_fair
PF2445_fair                       1434.01              0.05        head_fair
PF2446_fair                       1397.83              0.05        head_fair
PF2447_fair                       1401.48              0.05        head_fair
PF2448_fair                       1363.54              0.05        head_fair
PF2449_fair                       1394.63              0.05        head_fair
PF2450_fair                       1387.74              0.05        head_fair
PF2452_fair                       1469.78              0.05        head_fair
PF2453_fair                       1480.73              0.05        head_fair
PF2454_fair                       1352.66              0.05        head_fair
PF2455_fair                       1356.56              0.05        head_fair
PF2456_fair                       1469.15              0.05        head_fair
PF2457_fair                       1412.09              0.05        head_fair
PF2458_fair                       1422.16              0.05        head_fair
PF2470_fair                       1456.91              0.05        head_fair
PF2471_fair                       1471.25              0.05        head_fair
PF2472_fair                       1445.81              0.05        head_fair
PF2473_fair                       1490.62              0.05        head_fair
PF2474_fair                       1475.95              0.05        head_fair
PF2475_fair                       1465.82              0.05        head_fair
PF2391_fair                       1377.13              0.05        head_fair
PF2392_fair                       1399.52              0.05        head_fair
PF2393_fair                       1393.42              0.05        head_fair
PF2394_fair                       1393.24              0.05        head_fair
PF2396_fair                       1360.68              0.05        head_fair
PF2397_fair                       1356.75              0.05        head_fair
PF2398_fair                       1351.08              0.05        head_fair
PF2399_fair                       1381.62              0.05        head_fair
PF2400_fair                       1334.32              0.05        head_fair
PF2401_fair                       1342.59              0.05        head_fair
PF2402_fair                       1357.66              0.05        head_fair
PF2403_fair                       1353.77              0.05        head_fair
PF2404_fair                       1341.71              0.05        head_fair
PF2405_fair                       1324.53              0.05        head_fair
PF2407_fair                       1250.27              0.05        head_fair
PF2408_fair                       1308.68              0.05        head_fair
PF2409_fair                       1363.84              0.05        head_fair
PF2410_fair                       1368.84              0.05        head_fair
PF2411_fair                        1321.2              0.05        head_fair
PF2412_fair                       1350.72              0.05        head_fair
PF2413_fair                        1359.3              0.05        head_fair
PF2414_fair                        1379.4              0.05        head_fair
PF3620_fair                       1692.45              0.05        head_fair
PF3621_fair                       1680.28              0.05        head_fair
PF3622_fair                       1683.94              0.05        head_fair
PF3623_fair                       1687.32              0.05        head_fair
PF3624_fair                       1685.21              0.05        head_fair
PF3625_fair                       1685.26              0.05        head_fair
PF3626_fair                       1715.89              0.05        head_fair
PF3627_fair                       1544.34              0.05        head_fair
PF3628_fair                       1580.82              0.05        head_fair
PF3629_fair                       1624.53              0.05        head_fair
PF3630_fair                       1614.87              0.05        head_fair
PF3631_fair                       1694.45              0.05        head_fair
PF3632_fair                       1666.72              0.05        head_fair
PF3633_fair                       1667.13              0.05        head_fair
PF3634_fair                        1650.7              0.05        head_fair
PF3103_fair                       1422.42              0.05        head_fair
PF3105_fair                       1426.09              0.05        head_fair
PF3107_fair                       1443.14              0.05        head_fair
PF3108_fair                       1428.05              0.05        head_fair
PF3109_fair                       1431.05              0.05        head_fair
PF3111_fair                       1473.53              0.05        head_fair
PF3643_fair                       1616.73              0.05        head_fair
PF3644_fair                       1646.45              0.05        head_fair
PF3645_fair                       1668.74              0.05        head_fair
PF3646_fair                       1625.94              0.05        head_fair
PF3647_fair                       1600.43              0.05        head_fair
PF3648_fair                        1595.3              0.05        head_fair
PF3649_fair                       1674.87              0.05        head_fair
PF3650_fair                       1680.35              0.05        head_fair
PF3651_fair                       1636.55              0.05        head_fair
PF3652_fair                       1609.01              0.05        head_fair
PF3653_fair                       1581.69              0.05        head_fair
PF3654_fair                       1575.95              0.05        head_fair
PF3655_fair                       1684.27              0.05        head_fair
PF3656_fair                       1688.13              0.05        head_fair
PF3657_fair                       1673.09              0.05        head_fair
PF3658_fair                       1644.72              0.05        head_fair
PF3659_fair                       1650.25              0.05        head_fair
PF3660_fair                       1620.18              0.05        head_fair
PF3661_fair                       1621.91              0.05        head_fair
PF3662_fair                       1696.44              0.05        head_fair
PF3664_fair                       1620.28              0.05        head_fair
PF3665_fair                       1608.79              0.05        head_fair
PF3666_fair                       1610.82              0.05        head_fair
PF3667_fair                       1615.74              0.05        head_fair
PF3668_fair                       1605.21              0.05        head_fair
PF3669_fair                       1590.58              0.05        head_fair
PF3670_fair                       1672.96              0.05        head_fair
PF3671_fair                       1661.49              0.05        head_fair
PF3672_fair                       1654.22              0.05        head_fair
PF3673_fair                        1625.2              0.05        head_fair
PF3674_fair                       1623.16              0.05        head_fair
PF3675_fair                       1621.35              0.05        head_fair
PF3676_fair                       1555.92              0.05        head_fair
PF3207_fair                       1520.07              0.05        head_fair
PF3208_fair                       1538.85              0.05        head_fair
PF3209_fair                       1536.75              0.05        head_fair
PF3210_fair                       1538.47              0.05        head_fair
PF3211_fair                        1523.5              0.05        head_fair
PF3212_fair                       1492.03              0.05        head_fair
PF3213_fair                       1492.84              0.05        head_fair
PF3214_fair                       1511.21              0.05        head_fair
PF3215_fair                       1508.98              0.05        head_fair