pcf
* control data
restart regularisation
    4577     802       8    4574      21
12  6   double  point  1  0  0
1.000000e+001  -3.000000e+000  3.000000e-001  1.000000e-002  7 999 lamforgive
1.000000e+001  1.000000e+001  1.000000e-003
1.000000e-001 1 noaui
0 1.000000e-002  3  3  1.000000e-002  3
0 0 0 1 jcosave noverboserec nojcosaveitn reisaveitn parsaveitn
* singular value decomposition
1
4569 5E-07
0
* parameter groups
Kp     relative   1.000000e-002  0.000000e+000  switch  2.000000e+000  parabolic
Kz     relative   1.000000e-002  0.000000e+000  switch  2.000000e+000  parabolic
Kzones relative 1.0000000e-02 0.000000e+000 switch 2.0000000e+000 parabolic
RCH relative 0.01 0.01 switch 2.0 parabolic
STRMS relative 0.01 0.01 switch 2.0 parabolic
COAST relative 0.01 0.01 switch 2.0 parabolic
POR relative 0.01 0.01 switch 2.0 parabolic
HFB relative   1.000000e-002  0.000000e+000  switch  2.000000e+000  parabolic
* parameter data
KpX1z6_1        log       factor    1.0000E+00       0.497     1.591   Kp           201.188  0         1       
KpX1z6_2        log       factor    1.0000E+00       0.499     1.597   Kp           200.421  0         1       
KpX1z6_3        log       factor    1.0000E+00       0.515     1.648   Kp           194.219  0         1       
KpX1z6_4        log       factor    1.0000E+00       0.538     1.722   Kp           185.787  0         1       
KpX1z6_5        log       factor    1.0000E+00       0.486     1.556   Kp           205.627  0         1       
KpX1z6_6        log       factor    1.0000E+00       0.481     1.538   Kp           208.002  0         1       
KpX1z6_7        log       factor    1.0000E+00       0.487     1.557   Kp           205.524  0         1       
KpX1z6_8        log       factor    1.0000E+00       0.525     1.682   Kp           190.299  0         1       
KpX1z6_9        log       factor    1.0000E+00       0.521     1.666   Kp           192.041  0         1       
KpX1z6_10       log       factor    1.0000E+00       0.550     1.759   Kp           181.940  0         1       
KpX1z6_11       log       factor    1.0000E+00       0.503     1.610   Kp           198.751  0         1       
KpX1z6_12       log       factor    1.0000E+00       0.537     1.718   Kp           186.265  0         1       
KpX1z6_13       log       factor    1.0000E+00       0.455     1.457   Kp           219.566  0         1       
KpX1z6_14       log       factor    1.0000E+00       0.494     1.582   Kp           202.288  0         1       
KpX1z6_15       log       factor    1.0000E+00       0.502     1.608   Kp           199.042  0         1       
KpX1z6_16       log       factor    1.0000E+00       0.503     1.609   Kp           198.917  0         1       
KpX1z6_17       log       factor    1.0000E+00       0.548     1.754   Kp           182.469  0         1       
KpX1z6_18       log       factor    1.0000E+00       0.501     1.602   Kp           199.768  0         1       
KpX1z6_19       log       factor    1.0000E+00       0.565     1.809   Kp           176.858  0         1       
KpX1z6_20       log       factor    1.0000E+00       0.503     1.610   Kp           198.814  0         1       
KpX1z6_21       log       factor    1.0000E+00       0.461     1.475   Kp           216.890  0         1       
KpX1z6_22       log       factor    1.0000E+00       0.526     1.683   Kp           190.112  0         1       
KpX1z6_23       log       factor    1.0000E+00       0.542     1.734   Kp           184.543  0         1       
KpX1z6_24       log       factor    1.0000E+00       0.494     1.582   Kp           202.319  0         1       
KpX1z6_25       log       factor    1.0000E+00       0.502     1.607   Kp           199.145  0         1       
KpX1z6_26       log       factor    1.0000E+00       0.523     1.672   Kp           191.367  0         1       
KpX1z6_27       log       factor    1.0000E+00       0.518     1.658   Kp           192.954  0         1       
KpX1z6_28       log       factor    1.0000E+00       0.520     1.663   Kp           192.404  0         1       
KpX1z6_29       log       factor    1.0000E+00       0.519     1.662   Kp           192.570  0         1       
KpX1z6_30       log       factor    1.0000E+00       0.521     1.668   Kp           191.886  0         1       
KpX1z6_31       log       factor    1.0000E+00       0.570     1.826   Kp           175.292  0         1       
KpX1z6_32       log       factor    1.0000E+00       0.486     1.554   Kp           205.866  0         1       
KpX1z6_33       log       factor    1.0000E+00       0.492     1.576   Kp           203.097  0         1       
KpX1z6_34       log       factor    1.0000E+00       0.491     1.570   Kp           203.833  0         1       
KpX1z6_35       log       factor    1.0000E+00       0.562     1.799   Kp           177.905  0         1       
KpX1z6_36       log       factor    1.0000E+00       0.541     1.732   Kp           184.781  0         1       
KpX1z6_37       log       factor    1.0000E+00       0.539     1.725   Kp           185.456  0         1       
KpX1z6_38       log       factor    1.0000E+00       0.522     1.671   Kp           191.533  0         1       
KpX1z6_39       log       factor    1.0000E+00       0.507     1.624   Kp           197.071  0         1       
KpX1z6_40       log       factor    1.0000E+00       0.507     1.623   Kp           197.196  0         1       
KpX1z6_41       log       factor    1.0000E+00       0.558     1.785   Kp           179.223  0         1       
KpX1z6_42       log       factor    1.0000E+00       0.551     1.763   Kp           181.556  0         1       
KpX1z6_43       log       factor    1.0000E+00       0.483     1.545   Kp           207.090  0         1       
KpX1z6_44       log       factor    1.0000E+00       0.478     1.530   Kp           209.143  0         1       
KpX1z6_45       log       factor    1.0000E+00       0.494     1.582   Kp           202.267  0         1       
KpX1z6_46       log       factor    1.0000E+00       0.463     1.482   Kp           215.905  0         1       
KpX1z6_47       log       factor    1.0000E+00       0.516     1.652   Kp           193.680  0         1       
KpX1z6_48       log       factor    1.0000E+00       0.599     1.915   Kp           167.068  0         1       
KpX1z6_49       log       factor    1.0000E+00       0.579     1.853   Kp           172.678  0         1       
KpX1z6_50       log       factor    1.0000E+00       0.525     1.680   Kp           190.423  0         1       
KpX1z6_51       log       factor    1.0000E+00       0.497     1.591   Kp           201.085  0         1       
KpX1z6_52       log       factor    1.0000E+00       0.539     1.725   Kp           185.487  0         1       
KpX1z6_53       log       factor    1.0000E+00       0.536     1.715   Kp           186.638  0         1       
KpX1z6_54       log       factor    1.0000E+00       0.543     1.739   Kp           184.035  0         1       
KpX1z6_55       log       factor    1.0000E+00       0.575     1.839   Kp           174.027  0         1       
KpX1z6_56       log       factor    1.0000E+00       0.577     1.845   Kp           173.435  0         1       
KpX1z6_57       log       factor    1.0000E+00       0.462     1.479   Kp           216.413  0         1       
KpX1z6_58       log       factor    1.0000E+00       0.489     1.564   Kp           204.549  0         1       
KpX1z6_59       log       factor    1.0000E+00       0.433     1.386   Kp           230.953  0         1       
KpX1z6_60       log       factor    1.0000E+00       0.414     1.326   Kp           241.356  0         1       
KpX1z6_61       log       factor    1.0000E+00       0.440     1.409   Kp           227.033  0         1       
KpX1z6_62       log       factor    1.0000E+00       0.497     1.591   Kp           201.178  0         1       
KpX1z6_63       log       factor    1.0000E+00       0.568     1.817   Kp           176.132  0         1       
KpX1z6_64       log       factor    1.0000E+00       0.522     1.670   Kp           191.564  0         1       
KpX1z6_65       log       factor    1.0000E+00       0.494     1.582   Kp           202.267  0         1       
KpX1z6_66       log       factor    1.0000E+00       0.550     1.759   Kp           181.929  0         1       
KpX1z6_67       log       factor    1.0000E+00       0.561     1.795   Kp           178.300  0         1       
KpX1z6_68       log       factor    1.0000E+00       0.570     1.823   Kp           175.499  0         1       
KpX1z6_69       log       factor    1.0000E+00       0.453     1.450   Kp           220.738  0         1       
KpX1z6_70       log       factor    1.0000E+00       0.507     1.623   Kp           197.133  0         1       
KpX1z6_71       log       factor    1.0000E+00       0.497     1.590   Kp           201.261  0         1       
KpX1z6_72       log       factor    1.0000E+00       0.434     1.388   Kp           230.497  0         1       
KpX1z6_73       log       factor    1.0000E+00       0.470     1.505   Kp           212.649  0         1       
KpX1z6_74       log       factor    1.0000E+00       0.496     1.588   Kp           201.510  0         1       
KpX1z6_75       log       factor    1.0000E+00       0.539     1.726   Kp           185.404  0         1       
KpX1z6_76       log       factor    1.0000E+00       0.490     1.568   Kp           204.051  0         1       
KpX1z6_77       log       factor    1.0000E+00       0.518     1.659   Kp           192.892  0         1       
KpX1z6_78       log       factor    1.0000E+00       0.545     1.745   Kp           183.392  0         1       
KpX1z6_79       log       factor    1.0000E+00       0.567     1.813   Kp           176.516  0         1       
KpX1z6_80       log       factor    1.0000E+00       0.576     1.844   Kp           173.518  0         1       
KpX1z6_81       log       factor    1.0000E+00       0.587     1.879   Kp           170.303  0         1       
KpX1z6_82       log       factor    1.0000E+00       0.470     1.504   Kp           212.773  0         1       
KpX1z6_83       log       factor    1.0000E+00       0.554     1.773   Kp           180.477  0         1       
KpX1z6_84       log       factor    1.0000E+00       0.519     1.662   Kp           192.591  0         1       
KpX1z6_85       log       factor    1.0000E+00       0.495     1.585   Kp           201.883  0         1       
KpX1z6_86       log       factor    1.0000E+00       0.497     1.589   Kp           201.386  0         1       
KpX1z6_87       log       factor    1.0000E+00       0.509     1.629   Kp           196.407  0         1       
KpX1z6_88       log       factor    1.0000E+00       0.501     1.603   Kp           199.643  0         1       
KpX1z6_89       log       factor    1.0000E+00       0.555     1.776   Kp           180.177  0         1       
KpX1z6_90       log       factor    1.0000E+00       0.509     1.628   Kp           196.594  0         1       
KpX1z6_91       log       factor    1.0000E+00       0.505     1.615   Kp           198.139  0         1       
KpX1z6_92       log       factor    1.0000E+00       0.519     1.662   Kp           192.518  0         1       
KpX1z6_93       log       factor    1.0000E+00       0.536     1.716   Kp           186.513  0         1       
KpX1z6_94       log       factor    1.0000E+00       0.626     2.005   Kp           159.621  0         1       
KpX1z6_95       log       factor    1.0000E+00       0.585     1.872   Kp           170.978  0         1       
KpX1z6_96       log       factor    1.0000E+00       0.587     1.877   Kp           170.459  0         1       
KpX1z6_97       log       factor    1.0000E+00       0.467     1.496   Kp           213.924  0         1       
KpX1z6_98       log       factor    1.0000E+00       0.490     1.569   Kp           203.906  0         1       
KpX1z6_99       log       factor    1.0000E+00       0.449     1.435   Kp           222.937  0         1       
KpX1z6_100      log       factor    1.0000E+00       0.477     1.528   Kp           209.465  0         1       
KpX1z6_101      log       factor    1.0000E+00       0.495     1.582   Kp           202.215  0         1       
KpX1z6_102      log       factor    1.0000E+00       0.526     1.683   Kp           190.143  0         1       
KpX1z6_103      log       factor    1.0000E+00       0.541     1.730   Kp           184.979  0         1       
KpX1z6_104      log       factor    1.0000E+00       0.525     1.680   Kp           190.423  0         1       
KpX1z6_105      log       factor    1.0000E+00       0.517     1.654   Kp           193.421  0         1       
KpX1z6_106      log       factor    1.0000E+00       0.507     1.623   Kp           197.133  0         1       
KpX1z6_107      log       factor    1.0000E+00       0.539     1.723   Kp           185.673  0         1       
KpX1z6_108      log       factor    1.0000E+00       0.580     1.857   Kp           172.367  0         1       
KpX1z6_109      log       factor    1.0000E+00       0.673     2.154   Kp           148.566  0         1       
KpX1z6_110      log       factor    1.0000E+00       0.567     1.814   Kp           176.422  0         1       
KpX1z6_111      log       factor    1.0000E+00       0.441     1.411   Kp           226.836  0         1       
KpX1z6_112      log       factor    1.0000E+00       0.488     1.563   Kp           204.767  0         1       
KpX1z6_113      log       factor    1.0000E+00       0.470     1.504   Kp           212.732  0         1       
KpX1z6_114      log       factor    1.0000E+00       0.486     1.555   Kp           205.835  0         1       
KpX1z6_115      log       factor    1.0000E+00       0.543     1.738   Kp           184.128  0         1       
KpX1z6_116      log       factor    1.0000E+00       0.545     1.743   Kp           183.599  0         1       
KpX1z6_117      log       factor    1.0000E+00       0.581     1.860   Kp           172.056  0         1       
KpX1z6_118      log       factor    1.0000E+00       0.615     1.967   Kp           162.722  0         1       
KpX1z6_119      log       factor    1.0000E+00       0.552     1.768   Kp           180.996  0         1       
KpX1z6_120      log       factor    1.0000E+00       0.535     1.713   Kp           186.773  0         1       
KpX1z6_121      log       factor    1.0000E+00       0.547     1.750   Kp           182.863  0         1       
KpX1z6_122      log       factor    1.0000E+00       0.656     2.098   Kp           152.527  0         1       
KpX1z6_123      log       factor    1.0000E+00       0.649     2.076   Kp           154.156  0         1       
KpX1z6_124      log       factor    1.0000E+00       0.664     2.126   Kp           150.526  0         1       
KpX1z6_125      log       factor    1.0000E+00       0.590     1.887   Kp           169.577  0         1       
KpX1z6_126      log       factor    1.0000E+00       0.711     2.276   Kp           140.611  0         1       
KpX1z6_127      log       factor    1.0000E+00       0.412     1.318   Kp           242.839  0         1       
KpX1z6_128      log       factor    1.0000E+00       0.432     1.384   Kp           231.265  0         1       
KpX1z6_129      log       factor    1.0000E+00       0.483     1.545   Kp           207.173  0         1       
KpX1z6_130      log       factor    1.0000E+00       0.545     1.745   Kp           183.361  0         1       
KpX1z6_131      log       factor    1.0000E+00       0.523     1.675   Kp           191.025  0         1       
KpX1z6_132      log       factor    1.0000E+00       0.524     1.676   Kp           190.911  0         1       
KpX1z6_133      log       factor    1.0000E+00       0.546     1.746   Kp           183.278  0         1       
KpX1z6_134      log       factor    1.0000E+00       0.532     1.704   Kp           187.810  0         1       
KpX1z6_135      log       factor    1.0000E+00       0.551     1.763   Kp           181.556  0         1       
KpX1z6_136      log       factor    1.0000E+00       0.549     1.756   Kp           182.282  0         1       
KpX1z6_137      log       factor    1.0000E+00       0.581     1.858   Kp           172.264  0         1       
KpX1z6_138      log       factor    1.0000E+00       0.597     1.911   Kp           167.451  0         1       
KpX1z6_139      log       factor    1.0000E+00       0.617     1.975   Kp           162.058  0         1       
KpX1z6_140      log       factor    1.0000E+00       0.602     1.927   Kp           166.051  0         1       
KpX1z6_141      log       factor    1.0000E+00       0.670     2.143   Kp           149.302  0         1       
KpX1z6_142      log       factor    1.0000E+00       0.458     1.464   Kp           218.508  0         1       
KpX1z6_143      log       factor    1.0000E+00       0.452     1.445   Kp           221.381  0         1       
KpX1z6_144      log       factor    1.0000E+00       0.459     1.468   Kp           217.938  0         1       
KpX1z6_145      log       factor    1.0000E+00       0.467     1.493   Kp           214.287  0         1       
KpX1z6_146      log       factor    1.0000E+00       0.538     1.721   Kp           185.943  0         1       
KpX1z6_147      log       factor    1.0000E+00       0.543     1.739   Kp           184.035  0         1       
KpX1z6_148      log       factor    1.0000E+00       0.559     1.788   Kp           178.953  0         1       
KpX1z6_149      log       factor    1.0000E+00       0.518     1.658   Kp           192.964  0         1       
KpX1z6_150      log       factor    1.0000E+00       0.536     1.714   Kp           186.700  0         1       
KpX1z6_151      log       factor    1.0000E+00       0.536     1.714   Kp           186.731  0         1       
KpX1z6_152      log       factor    1.0000E+00       0.583     1.865   Kp           171.610  0         1       
KpX1z6_153      log       factor    1.0000E+00       0.494     1.580   Kp           202.516  0         1       
KpX1z6_154      log       factor    1.0000E+00       0.495     1.585   Kp           201.842  0         1       
KpX1z6_155      log       factor    1.0000E+00       0.491     1.570   Kp           203.781  0         1       
KpX1z6_156      log       factor    1.0000E+00       0.469     1.501   Kp           213.126  0         1       
KpX1z6_157      log       factor    1.0000E+00       0.524     1.678   Kp           190.672  0         1       
KpX1z6_158      log       factor    1.0000E+00       0.509     1.629   Kp           196.428  0         1       
KpX1z6_159      log       factor    1.0000E+00       0.519     1.660   Kp           192.757  0         1       
KpX1z6_160      log       factor    1.0000E+00       0.506     1.621   Kp           197.434  0         1       
KpX1z6_161      log       factor    1.0000E+00       0.547     1.752   Kp           182.676  0         1       
KpX1z6_162      log       factor    1.0000E+00       0.541     1.732   Kp           184.740  0         1       
KpX1z6_163      log       factor    1.0000E+00       0.533     1.704   Kp           187.779  0         1       
KpX1z6_164      log       factor    1.0000E+00       0.500     1.599   Kp           200.100  0         1       
KpX1z6_165      log       factor    1.0000E+00       0.483     1.545   Kp           207.152  0         1       
KpX1z6_166      log       factor    1.0000E+00       0.488     1.563   Kp           204.715  0         1       
KpX1z6_167      log       factor    1.0000E+00       0.482     1.543   Kp           207.411  0         1       
KpX1z6_168      log       factor    1.0000E+00       0.514     1.646   Kp           194.458  0         1       
KpX1z6_169      log       factor    1.0000E+00       0.528     1.689   Kp           189.480  0         1       
KpX1z6_170      log       factor    1.0000E+00       0.557     1.781   Kp           179.669  0         1       
KpX1z6_171      log       factor    1.0000E+00       0.536     1.715   Kp           186.576  0         1       
KpX1z6_172      log       factor    1.0000E+00       0.488     1.561   Kp           204.995  0         1       
KpX1z6_173      log       factor    1.0000E+00       0.497     1.590   Kp           201.199  0         1       
KpX1z6_174      log       factor    1.0000E+00       0.504     1.613   Kp           198.419  0         1       
KpX1z6_175      log       factor    1.0000E+00       0.503     1.611   Kp           198.689  0         1       
KpX1z6_176      log       factor    1.0000E+00       0.519     1.661   Kp           192.601  0         1       
KpX1z6_177      log       factor    1.0000E+00       0.562     1.797   Kp           178.061  0         1       
KpX1z6_178      log       factor    1.0000E+00       0.549     1.758   Kp           182.012  0         1       
KpX1z6_179      log       factor    1.0000E+00       0.546     1.748   Kp           183.060  0         1       
KpX1z6_180      log       factor    1.0000E+00       0.525     1.681   Kp           190.361  0         1       
KpX1z6_181      log       factor    1.0000E+00       0.517     1.655   Kp           193.338  0         1       
KpX1z6_182      log       factor    1.0000E+00       0.509     1.629   Kp           196.490  0         1       
KpX1z6_183      log       factor    1.0000E+00       0.505     1.617   Kp           197.942  0         1       
KpX1z6_184      log       factor    1.0000E+00       0.510     1.633   Kp           195.920  0         1       
KpX1z6_185      log       factor    1.0000E+00       0.490     1.569   Kp           203.958  0         1       
KpX1z6_186      log       factor    1.0000E+00       0.594     1.900   Kp           168.426  0         1       
KpX1z6_187      log       factor    1.0000E+00       0.574     1.835   Kp           174.348  0         1       
KpX1z6_188      log       factor    1.0000E+00       0.595     1.905   Kp           167.949  0         1       
KpX1z6_189      log       factor    1.0000E+00       0.535     1.711   Kp           187.042  0         1       
KpX1z6_190      log       factor    1.0000E+00       0.520     1.663   Kp           192.415  0         1       
KpX1z6_191      log       factor    1.0000E+00       0.532     1.703   Kp           187.893  0         1       
KpX1z6_192      log       factor    1.0000E+00       0.509     1.629   Kp           196.459  0         1       
KpX1z6_193      log       factor    1.0000E+00       0.527     1.687   Kp           189.666  0         1       
KpX1z6_194      log       factor    1.0000E+00       0.562     1.798   Kp           178.020  0         1       
KpX1z6_195      log       factor    1.0000E+00       0.550     1.759   Kp           181.961  0         1       
KpX1z6_196      log       factor    1.0000E+00       0.566     1.811   Kp           176.682  0         1       
KpX1z6_197      log       factor    1.0000E+00       0.573     1.835   Kp           174.379  0         1       
KpX1z6_198      log       factor    1.0000E+00       0.512     1.639   Kp           195.246  0         1       
KpX1z6_199      log       factor    1.0000E+00       0.529     1.693   Kp           189.065  0         1       
KpX1z1_4        log       factor    1.0000E+00       0.687     2.199   Kp           145.517  0         1       
KpX1z1_5        log       factor    1.0000E+00       0.778     2.489   Kp           128.581  0         1       
KpX1z1_6        log       factor    1.0000E+00       0.780     2.495   Kp           128.280  0         1       
KpX1z1_7        log       factor    1.0000E+00       0.666     2.131   Kp           150.132  0         1       
KpX1z1_8        log       factor    1.0000E+00       0.733     2.344   Kp           136.514  0         1       
KpX1z1_9        log       factor    1.0000E+00       0.760     2.431   Kp           131.619  0         1       
KpX1z1_10       log       factor    1.0000E+00       0.632     2.023   Kp           158.149  0         1       
KpX1z1_11       log       factor    1.0000E+00       0.760     2.434   Kp           131.495  0         1       
KpX1z1_12       log       factor    1.0000E+00       0.775     2.481   Kp           128.964  0         1       
KpX1z1_15       log       factor    1.0000E+00       0.840     2.687   Kp           119.070  0         1       
KpX1z1_16       log       factor    1.0000E+00       0.762     2.437   Kp           131.319  0         1       
KpX1z1_17       log       factor    1.0000E+00       0.856     2.740   Kp           116.768  0         1       
KpX1z1_18       log       factor    1.0000E+00       0.777     2.486   Kp           128.726  0         1       
KpX1z1_19       log       factor    1.0000E+00       0.777     2.486   Kp           128.726  0         1       
KpX1z1_20       log       factor    1.0000E+00       0.818     2.618   Kp           122.244  0         1       
KpX1z1_21       log       factor    1.0000E+00       0.864     2.766   Kp           115.710  0         1       
KpX1z1_22       log       factor    1.0000E+00       0.998     3.194   Kp           100.195  0         1       
KpX1z1_24       log       factor    1.0000E+00       0.803     2.569   Kp           124.577  0         1       
KpX1z1_25       log       factor    1.0000E+00       0.708     2.265   Kp           141.264  0         1       
KpX1z1_26       log       factor    1.0000E+00       0.992     3.174   Kp           100.807  0         1       
KpX1z10_6       log       factor    1.0000E+00       0.720     2.303   Kp           138.921  0         1       
KpX1z10_7       log       factor    1.0000E+00       0.608     1.945   Kp           164.527  0         1       
KpX1z10_8       log       factor    1.0000E+00       0.489     1.565   Kp           204.497  0         1       
KpX1z10_9       log       factor    1.0000E+00       0.504     1.612   Kp           198.451  0         1       
KpX1z10_11      log       factor    1.0000E+00       0.680     2.175   Kp           147.093  0         1       
KpX1z10_12      log       factor    1.0000E+00       0.565     1.807   Kp           177.096  0         1       
KpX1z10_13      log       factor    1.0000E+00       0.464     1.484   Kp           215.615  0         1       
KpX1z10_14      log       factor    1.0000E+00       0.448     1.432   Kp           223.434  0         1       
KpX1z10_15      log       factor    1.0000E+00       0.467     1.493   Kp           214.287  0         1       
KpX1z10_16      log       factor    1.0000E+00       0.544     1.741   Kp           183.786  0         1       
KpX1z10_17      log       factor    1.0000E+00       0.565     1.808   Kp           176.972  0         1       
KpX1z10_18      log       factor    1.0000E+00       0.465     1.490   Kp           214.837  0         1       
KpX1z10_19      log       factor    1.0000E+00       0.451     1.442   Kp           221.920  0         1       
KpX1z10_20      log       factor    1.0000E+00       0.461     1.475   Kp           216.901  0         1       
KpX1z10_21      log       factor    1.0000E+00       0.522     1.669   Kp           191.751  0         1       
KpX1z10_22      log       factor    1.0000E+00       0.522     1.670   Kp           191.595  0         1       
KpX1z10_23      log       factor    1.0000E+00       0.539     1.724   Kp           185.632  0         1       
KpX1z10_24      log       factor    1.0000E+00       0.485     1.554   Kp           205.980  0         1       
KpX1z10_25      log       factor    1.0000E+00       0.482     1.544   Kp           207.266  0         1       
KpX1z10_26      log       factor    1.0000E+00       0.503     1.610   Kp           198.751  0         1       
KpX1z10_27      log       factor    1.0000E+00       0.486     1.554   Kp           205.897  0         1       
KpX1z10_28      log       factor    1.0000E+00       0.482     1.544   Kp           207.307  0         1       
KpX1z10_29      log       factor    1.0000E+00       0.531     1.699   Kp           188.370  0         1       
KpX1z10_30      log       factor    1.0000E+00       0.588     1.883   Kp           169.951  0         1       
KpX1z10_31      log       factor    1.0000E+00       0.480     1.535   Kp           208.407  0         1       
KpX1z10_32      log       factor    1.0000E+00       0.478     1.531   Kp           208.988  0         1       
KpX1z10_33      log       factor    1.0000E+00       0.544     1.742   Kp           183.703  0         1       
KpX1z10_34      log       factor    1.0000E+00       0.582     1.863   Kp           171.776  0         1       
KpX1z10_35      log       factor    1.0000E+00       0.606     1.939   Kp           165.045  0         1       
KpX1z10_36      log       factor    1.0000E+00       0.554     1.772   Kp           180.612  0         1       
KpX1z10_37      log       factor    1.0000E+00       0.596     1.908   Kp           167.731  0         1       
KpX1z10_38      log       factor    1.0000E+00       0.656     2.099   Kp           152.465  0         1       
KpX1z10_39      log       factor    1.0000E+00       0.663     2.121   Kp           150.878  0         1       
KpX1z10_40      log       factor    1.0000E+00       0.640     2.048   Kp           156.240  0         1       
KpX1z10_41      log       factor    1.0000E+00       0.629     2.012   Kp           159.040  0         1       
KpX1z10_42      log       factor    1.0000E+00       0.647     2.070   Kp           154.612  0         1       
KpX1z10_43      log       factor    1.0000E+00       0.698     2.234   Kp           143.245  0         1       