pcf
* control data
restart regularisation
    1064    1497       5    1058      13
      42       3 single  point        1 0 0
  1.00000000e+01 -3.00000000e+00  3.00000000e-01  1.00000000e-02      -7     999 lamforgive  derforgive
  1.00000000e+01  1.00000000e+01  1.00000000e-03
  1.00000000e-01 noaui  senreuse
      0  1.00000000e-02       3       3  1.00000000e-02       3  1.00000000e-04       0
       0       0       0       0 jcosave  noverboserec  nojcosaveitn  reisaveitn  parsaveitn
* singular value decomposition
       1
    1064  5.00000000e-07
       0
* parameter groups
 Kx  relative   1.00000000e-02  0.00000000e+00 switch   2.00000000e+00 parabolic
 Rch  relative   1.00000000e-02  0.00000000e+00 switch   2.00000000e+00 parabolic
 Kp  relative   1.00000000e-02  0.00000000e+00 switch   2.00000000e+00 parabolic
 Kz  relative   1.00000000e-02  0.00000000e+00 switch   2.00000000e+00 parabolic
 BCCond  relative   1.00000000e-02  0.00000000e+00 switch   2.00000000e+00 parabolic
* parameter data
 GHBCond  fixed  factor   1.00000000e+00  1.00000000e-05  1.00000000e+04 BCCond   6.00000000e+05  0.00000000e+00       1
 RIVCond  fixed  factor   1.00000000e+00  1.00000000e-05  1.00000000e+04 BCCond   6.00000000e+05  0.00000000e+00       1
 Kx23  log  factor   1.00000000e+00  1.00000000e-08  1.00000000e+03 Kx   1.00000000e+02  0.00000000e+00       1
 Kx28  log  factor   1.00000000e+00  1.00000000e-08  1.00000000e+03 Kx   1.00000000e-04  0.00000000e+00       1
 Kx40  fixed  factor   1.00000000e+00  1.00000000e-08  1.00000000e+03 Kx   1.00000000e+03  0.00000000e+00       1
 Kx41  fixed  factor   1.00000000e+00  1.00000000e-08  1.00000000e+03 Kx   3.00000000e+01  0.00000000e+00       1
 Kx51  log  factor   1.00000000e+00  1.00000000e-08  1.00000000e+03 Kx   1.50000000e+02  0.00000000e+00       1
 Kx52  log  factor   1.00000000e+00  1.00000000e-08  1.00000000e+03 Kx   1.00000000e-01  0.00000000e+00       1
 Kx53  log  factor   1.00000000e+00  1.00000000e-08  1.00000000e+03 Kx   1.50000000e+02  0.00000000e+00       1
 Kx54  log  factor   1.00000000e+00  1.00000000e-08  1.00000000e+03 Kx   1.00000000e-01  0.00000000e+00       1
 Kx55  log  factor   1.00000000e+00  1.00000000e-08  1.00000000e+03 Kx   1.50000000e+02  0.00000000e+00       1
 Kx56  log  factor   1.00000000e+00  1.00000000e-08  1.00000000e+03 Kx   1.00000000e-01  0.00000000e+00       1
 Kx57  log  factor   1.00000000e+00  1.00000000e-08  1.00000000e+03 Kx   1.94000000e+02  0.00000000e+00       1
 Kx58  log  factor   1.00000000e+00  1.00000000e-08  1.00000000e+03 Kx   1.00000000e-01  0.00000000e+00       1
 Kx59  log  factor   1.00000000e+00  1.00000000e-08  1.00000000e+03 Kx   5.50000000e+00  0.00000000e+00       1
 Kx60  log  factor   1.00000000e+00  1.00000000e-08  1.00000000e+03 Kx   1.00000000e-01  0.00000000e+00       1
 Kx61  log  factor   1.00000000e+00  1.00000000e-08  1.00000000e+03 Kx   1.36000000e+02  0.00000000e+00       1
 Kx62  log  factor   1.00000000e+00  1.00000000e-08  1.00000000e+03 Kx   1.00000000e-04  0.00000000e+00       1
 Kx63  log  factor   1.00000000e+00  1.00000000e-08  1.00000000e+03 Kx   7.00000000e+01  0.00000000e+00       1
 Kx64  log  factor   1.00000000e+00  1.00000000e-08  1.00000000e+03 Kx   1.00000000e-06  0.00000000e+00       1
 Kx65  log  factor   1.00000000e+00  1.00000000e-08  1.00000000e+03 Kx   7.50000000e+01  0.00000000e+00       1
 Kx66  log  factor   1.00000000e+00  1.00000000e-08  1.00000000e+03 Kx   1.00000000e-06  0.00000000e+00       1
 Kx67  log  factor   1.00000000e+00  1.00000000e-08  1.00000000e+03 Kx   2.00000000e+01  0.00000000e+00       1
 Kx68  log  factor   1.00000000e+00  1.00000000e-08  1.00000000e+03 Kx   1.00000000e-06  0.00000000e+00       1
 Kx69  log  factor   1.00000000e+00  1.00000000e-08  1.00000000e+03 Kx   9.80000000e+01  0.00000000e+00       1
 Kz23  log  factor   1.00000000e+00  1.00000000e-08  1.00000000e+03 Kz   1.00000000e+01  0.00000000e+00       1
 Kz28  log  factor   1.00000000e+00  1.00000000e-08  1.00000000e+03 Kz   1.00000000e-04  0.00000000e+00       1
 Kz40  fixed  factor   1.00000000e+00  1.00000000e-08  1.00000000e+03 Kz   1.00000000e+03  0.00000000e+00       1
 Kz41  fixed  factor   1.00000000e+00  1.00000000e-08  1.00000000e+03 Kz   1.00000000e+01  0.00000000e+00       1
 Kz51  log  factor   1.00000000e+00  1.00000000e-08  1.00000000e+03 Kz   1.50000000e+01  0.00000000e+00       1
 Kz52  log  factor   1.00000000e+00  1.00000000e-08  1.00000000e+03 Kz   1.00000000e-01  0.00000000e+00       1
 Kz53  log  factor   1.00000000e+00  1.00000000e-08  1.00000000e+03 Kz   1.50000000e+01  0.00000000e+00       1
 Kz54  log  factor   1.00000000e+00  1.00000000e-08  1.00000000e+03 Kz   1.00000000e-01  0.00000000e+00       1
 Kz55  log  factor   1.00000000e+00  1.00000000e-08  1.00000000e+03 Kz   1.50000000e+01  0.00000000e+00       1
 Kz56  log  factor   1.00000000e+00  1.00000000e-08  1.00000000e+03 Kz   1.00000000e-01  0.00000000e+00       1
 Kz57  log  factor   1.00000000e+00  1.00000000e-08  1.00000000e+03 Kz   4.00000000e+01  0.00000000e+00       1
 Kz58  log  factor   1.00000000e+00  1.00000000e-08  1.00000000e+03 Kz   1.00000000e-01  0.00000000e+00       1
 Kz59  log  factor   1.00000000e+00  1.00000000e-08  1.00000000e+03 Kz   5.00000000e+00  0.00000000e+00       1
 Kz60  log  factor   1.00000000e+00  1.00000000e-08  1.00000000e+03 Kz   1.00000000e-01  0.00000000e+00       1
 Kz61  log  factor   1.00000000e+00  1.00000000e-08  1.00000000e+03 Kz   1.50000000e+01  0.00000000e+00       1
 Kz62  log  factor   1.00000000e+00  1.00000000e-08  1.00000000e+03 Kz   1.00000000e-04  0.00000000e+00       1
 Kz63  log  factor   1.00000000e+00  1.00000000e-08  1.00000000e+03 Kz   7.00000000e+00  0.00000000e+00       1
 Kz64  log  factor   1.00000000e+00  1.00000000e-08  1.00000000e+03 Kz   1.00000000e-06  0.00000000e+00       1
 Kz65  log  factor   1.00000000e+00  1.00000000e-08  1.00000000e+03 Kz   7.50000000e+00  0.00000000e+00       1
 Kz66  log  factor   1.00000000e+00  1.00000000e-08  1.00000000e+03 Kz   1.00000000e-06  0.00000000e+00       1
 Kz67  log  factor   1.00000000e+00  1.00000000e-08  1.00000000e+03 Kz   2.00000000e-01  0.00000000e+00       1
 Kz68  log  factor   1.00000000e+00  1.00000000e-08  1.00000000e+03 Kz   1.00000000e-06  0.00000000e+00       1
 Kz69  log  factor   1.00000000e+00  1.00000000e-08  1.00000000e+03 Kz   1.00000000e+01  0.00000000e+00       1
 KpKx1_1  log  factor   1.00000000e+00  1.00000000e-04  1.00000000e+03 Kp   1.50000000e+02  0.00000000e+00       1
 KpKx1_2  log  factor   1.00000000e+00  1.00000000e-04  1.00000000e+03 Kp   1.50000000e+02  0.00000000e+00       1
 KpKx1_3  log  factor   1.00000000e+00  1.00000000e-04  1.00000000e+03 Kp   1.50000000e+02  0.00000000e+00       1
 KpKx1_4  log  factor   1.00000000e+00  1.00000000e-04  1.00000000e+03 Kp   1.50000000e+02  0.00000000e+00       1
 KpKx1_5  log  factor   1.00000000e+00  1.00000000e-04  1.00000000e+03 Kp   1.50000000e+02  0.00000000e+00       1
 KpKx1_6  log  factor   1.00000000e+00  1.00000000e-04  1.00000000e+03 Kp   1.50000000e+02  0.00000000e+00       1
 KpKx1_7  log  factor   1.00000000e+00  1.00000000e-04  1.00000000e+03 Kp   1.50000000e+02  0.00000000e+00       1
 KpKx1_8  log  factor   1.00000000e+00  1.00000000e-04  1.00000000e+03 Kp   1.50000000e+02  0.00000000e+00       1
 KpKx1_9  log  factor   1.00000000e+00  1.00000000e-04  1.00000000e+03 Kp   1.50000000e+02  0.00000000e+00       1
 KpKx1_10  log  factor   1.00000000e+00  1.00000000e-04  1.00000000e+03 Kp   1.50000000e+02  0.00000000e+00       1
 KpKx1_11  log  factor   1.00000000e+00  1.00000000e-04  1.00000000e+03 Kp   1.50000000e+02  0.00000000e+00       1
 KpKx1_12  log  factor   1.00000000e+00  1.00000000e-04  1.00000000e+03 Kp   1.50000000e+02  0.00000000e+00       1
 KpKx1_13  log  factor   1.00000000e+00  1.00000000e-04  1.00000000e+03 Kp   1.50000000e+02  0.00000000e+00       1
 KpKx1_14  log  factor   1.00000000e+00  1.00000000e-04  1.00000000e+03 Kp   1.50000000e+02  0.00000000e+00       1
 KpKx1_15  log  factor   1.00000000e+00  1.00000000e-04  1.00000000e+03 Kp   1.50000000e+02  0.00000000e+00       1
 KpKx1_16  log  factor   1.00000000e+00  1.00000000e-04  1.00000000e+03 Kp   1.50000000e+02  0.00000000e+00       1
 KpKx1_17  log  factor   1.00000000e+00  1.00000000e-04  1.00000000e+03 Kp   1.50000000e+02  0.00000000e+00       1
 KpKx1_18  log  factor   1.00000000e+00  1.00000000e-04  1.00000000e+03 Kp   1.50000000e+02  0.00000000e+00       1
 KpKx1_19  log  factor   1.00000000e+00  1.00000000e-04  1.00000000e+03 Kp   1.50000000e+02  0.00000000e+00       1
 KpKx1_20  log  factor   1.00000000e+00  1.00000000e-04  1.00000000e+03 Kp   1.50000000e+02  0.00000000e+00       1
 KpKx1_21  log  factor   1.00000000e+00  1.00000000e-04  1.00000000e+03 Kp   1.50000000e+02  0.00000000e+00       1
 KpKx1_22  log  factor   1.00000000e+00  1.00000000e-04  1.00000000e+03 Kp   1.50000000e+02  0.00000000e+00       1
 KpKx1_23  log  factor   1.00000000e+00  1.00000000e-04  1.00000000e+03 Kp   1.50000000e+02  0.00000000e+00       1
 KpKx1_24  log  factor   1.00000000e+00  1.00000000e-04  1.00000000e+03 Kp   1.50000000e+02  0.00000000e+00       1
 KpKx1_25  log  factor   1.00000000e+00  1.00000000e-04  1.00000000e+03 Kp   1.50000000e+02  0.00000000e+00       1
 KpKx1_26  log  factor   1.00000000e+00  1.00000000e-04  1.00000000e+03 Kp   1.50000000e+02  0.00000000e+00       1
 KpKx1_27  log  factor   1.00000000e+00  1.00000000e-04  1.00000000e+03 Kp   1.50000000e+02  0.00000000e+00       1
 KpKx1_28  log  factor   1.00000000e+00  1.00000000e-04  1.00000000e+03 Kp   1.50000000e+02  0.00000000e+00       1
 KpKx1_29  log  factor   1.00000000e+00  1.00000000e-04  1.00000000e+03 Kp   1.50000000e+02  0.00000000e+00       1
 KpKx1_30  log  factor   1.00000000e+00  1.00000000e-04  1.00000000e+03 Kp   1.50000000e+02  0.00000000e+00       1
 KpKx1_31  log  factor   1.00000000e+00  1.00000000e-04  1.00000000e+03 Kp   1.50000000e+02  0.00000000e+00       1
 KpKx2_1  log  factor   1.00000000e+00  1.00000000e-04  1.00000000e+03 Kp   1.00000000e-01  0.00000000e+00       1
 KpKx2_2  log  factor   1.00000000e+00  1.00000000e-04  1.00000000e+03 Kp   1.00000000e-01  0.00000000e+00       1
 KpKx2_3  log  factor   1.00000000e+00  1.00000000e-04  1.00000000e+03 Kp   1.00000000e-01  0.00000000e+00       1
 KpKx2_4  log  factor   1.00000000e+00  1.00000000e-04  1.00000000e+03 Kp   1.00000000e-01  0.00000000e+00       1
 KpKx2_5  log  factor   1.00000000e+00  1.00000000e-04  1.00000000e+03 Kp   1.00000000e-01  0.00000000e+00       1
 KpKx2_6  log  factor   1.00000000e+00  1.00000000e-04  1.00000000e+03 Kp   1.00000000e-01  0.00000000e+00       1
 KpKx2_7  log  factor   1.00000000e+00  1.00000000e-04  1.00000000e+03 Kp   1.00000000e-01  0.00000000e+00       1
 KpKx2_8  log  factor   1.00000000e+00  1.00000000e-04  1.00000000e+03 Kp   1.00000000e-01  0.00000000e+00       1
 KpKx2_9  log  factor   1.00000000e+00  1.00000000e-04  1.00000000e+03 Kp   1.00000000e-01  0.00000000e+00       1
 KpKx2_10  log  factor   1.00000000e+00  1.00000000e-04  1.00000000e+03 Kp   1.00000000e-01  0.00000000e+00       1
 KpKx2_11  log  factor   1.00000000e+00  1.00000000e-04  1.00000000e+03 Kp   1.00000000e-01  0.00000000e+00       1
 KpKx2_12  log  factor   1.00000000e+00  1.00000000e-04  1.00000000e+03 Kp   1.00000000e-01  0.00000000e+00       1
 KpKx2_13  log  factor   1.00000000e+00  1.00000000e-04  1.00000000e+03 Kp   1.00000000e-01  0.00000000e+00       1
 KpKx2_14  log  factor   1.00000000e+00  1.00000000e-04  1.00000000e+03 Kp   1.00000000e-01  0.00000000e+00       1
 KpKx2_15  log  factor   1.00000000e+00  1.00000000e-04  1.00000000e+03 Kp   1.00000000e-01  0.00000000e+00       1
 KpKx2_16  log  factor   1.00000000e+00  1.00000000e-04  1.00000000e+03 Kp   1.00000000e-01  0.00000000e+00       1
 KpKx2_17  log  factor   1.00000000e+00  1.00000000e-04  1.00000000e+03 Kp   1.00000000e-01  0.00000000e+00       1
 KpKx2_18  log  factor   1.00000000e+00  1.00000000e-04  1.00000000e+03 Kp   1.00000000e-01  0.00000000e+00       1
 KpKx2_19  log  factor   1.00000000e+00  1.00000000e-04  1.00000000e+03 Kp   1.00000000e-01  0.00000000e+00       1
 KpKx2_20  log  factor   1.00000000e+00  1.00000000e-04  1.00000000e+03 Kp   1.00000000e-01  0.00000000e+00       1
 KpKx2_21  log  factor   1.00000000e+00  1.00000000e-04  1.00000000e+03 Kp   1.00000000e-01  0.00000000e+00       1
 KpKx2_22  log  factor   1.00000000e+00  1.00000000e-04  1.00000000e+03 Kp   1.00000000e-01  0.00000000e+00       1
 KpKx3_1  log  factor   1.00000000e+00  1.00000000e-04  1.00000000e+03 Kp   1.50000000e+02  0.00000000e+00       1
 KpKx3_2  log  factor   1.00000000e+00  1.00000000e-04  1.00000000e+03 Kp   1.50000000e+02  0.00000000e+00       1
 KpKx3_3  log  factor   1.00000000e+00  1.00000000e-04  1.00000000e+03 Kp   1.50000000e+02  0.00000000e+00       1
 KpKx3_4  log  factor   1.00000000e+00  1.00000000e-04  1.00000000e+03 Kp   1.50000000e+02  0.00000000e+00       1
 KpKx3_5  log  factor   1.00000000e+00  1.00000000e-04  1.00000000e+03 Kp   1.50000000e+02  0.00000000e+00       1
 KpKx3_6  log  factor   1.00000000e+00  1.00000000e-04  1.00000000e+03 Kp   1.50000000e+02  0.00000000e+00       1
 KpKx3_7  log  factor   1.00000000e+00  1.00000000e-04  1.00000000e+03 Kp   1.50000000e+02  0.00000000e+00       1
 KpKx3_8  log  factor   1.00000000e+00  1.00000000e-04  1.00000000e+03 Kp   1.50000000e+02  0.00000000e+00       1
 KpKx3_9  log  factor   1.00000000e+00  1.00000000e-04  1.00000000e+03 Kp   1.50000000e+02  0.00000000e+00       1
 KpKx3_10  log  factor   1.00000000e+00  1.00000000e-04  1.00000000e+03 Kp   1.50000000e+02  0.00000000e+00       1
 KpKx3_11  log  factor   1.00000000e+00  1.00000000e-04  1.00000000e+03 Kp   1.50000000e+02  0.00000000e+00       1
 KpKx3_12  log  factor   1.00000000e+00  1.00000000e-04  1.00000000e+03 Kp   1.50000000e+02  0.00000000e+00       1
 KpKx3_13  log  factor   1.00000000e+00  1.00000000e-04  1.00000000e+03 Kp   1.50000000e+02  0.00000000e+00       1
 KpKx3_14  log  factor   1.00000000e+00  1.00000000e-04  1.00000000e+03 Kp   1.50000000e+02  0.00000000e+00       1
 KpKx3_15  log  factor   1.00000000e+00  1.00000000e-04  1.00000000e+03 Kp   1.50000000e+02  0.00000000e+00       1
 KpKx4_1  log  factor   1.00000000e+00  1.00000000e-04  1.00000000e+03 Kp   1.00000000e-01  0.00000000e+00       1
 KpKx4_2  log  factor   1.00000000e+00  1.00000000e-04  1.00000000e+03 Kp   1.00000000e-01  0.00000000e+00       1
 KpKx4_3  log  factor   1.00000000e+00  1.00000000e-04  1.00000000e+03 Kp   1.00000000e-01  0.00000000e+00       1
 KpKx4_4  log  factor   1.00000000e+00  1.00000000e-04  1.00000000e+03 Kp   1.00000000e-01  0.00000000e+00       1
 KpKx4_5  log  factor   1.00000000e+00  1.00000000e-04  1.00000000e+03 Kp   1.00000000e-01  0.00000000e+00       1
 KpKx4_6  log  factor   1.00000000e+00  1.00000000e-04  1.00000000e+03 Kp   1.00000000e-01  0.00000000e+00       1
 KpKx4_7  log  factor   1.00000000e+00  1.00000000e-04  1.00000000e+03 Kp   1.00000000e-01  0.00000000e+00       1
 KpKx4_8  log  factor   1.00000000e+00  1.00000000e-04  1.00000000e+03 Kp   1.00000000e-01  0.00000000e+00       1
 KpKx4_9  log  factor   1.00000000e+00  1.00000000e-04  1.00000000e+03 Kp   1.00000000e-01  0.00000000e+00       1
 KpKx4_10  log  factor   1.00000000e+00  1.00000000e-04  1.00000000e+03 Kp   1.00000000e-01  0.00000000e+00       1
 KpKx4_11  log  factor   1.00000000e+00  1.00000000e-04  1.00000000e+03 Kp   1.00000000e-01  0.00000000e+00       1
 KpKx4_12  log  factor   1.00000000e+00  1.00000000e-04  1.00000000e+03 Kp   1.00000000e-01  0.00000000e+00       1
 KpKx4_13  log  factor   1.00000000e+00  1.00000000e-04  1.00000000e+03 Kp   1.00000000e-01  0.00000000e+00       1
 KpKx4_14  log  factor   1.00000000e+00  1.00000000e-04  1.00000000e+03 Kp   1.00000000e-01  0.00000000e+00       1
 KpKx4_15  log  factor   1.00000000e+00  1.00000000e-04  1.00000000e+03 Kp   1.00000000e-01  0.00000000e+00       1
 KpKx4_16  log  factor   1.00000000e+00  1.00000000e-04  1.00000000e+03 Kp   1.00000000e-01  0.00000000e+00       1
 KpKx4_17  log  factor   1.00000000e+00  1.00000000e-04  1.00000000e+03 Kp   1.00000000e-01  0.00000000e+00       1
 KpKx4_18  log  factor   1.00000000e+00  1.00000000e-04  1.00000000e+03 Kp   1.00000000e-01  0.00000000e+00       1
 KpKx4_19  log  factor   1.00000000e+00  1.00000000e-04  1.00000000e+03 Kp   1.00000000e-01  0.00000000e+00       1
 KpKx4_20  log  factor   1.00000000e+00  1.00000000e-04  1.00000000e+03 Kp   1.00000000e-01  0.00000000e+00       1
 KpKx4_21  log  factor   1.00000000e+00  1.00000000e-04  1.00000000e+03 Kp   1.00000000e-01  0.00000000e+00       1
 KpKx4_22  log  factor   1.00000000e+00  1.00000000e-04  1.00000000e+03 Kp   1.00000000e-01  0.00000000e+00       1
 KpKx4_23  log  factor   1.00000000e+00  1.00000000e-04  1.00000000e+03 Kp   1.00000000e-01  0.00000000e+00       1
 KpKx4_24  log  factor   1.00000000e+00  1.00000000e-04  1.00000000e+03 Kp   1.00000000e-01  0.00000000e+00       1
 KpKx4_25  log  factor   1.00000000e+00  1.00000000e-04  1.00000000e+03 Kp   1.00000000e-01  0.00000000e+00       1
 KpKx4_26  log  factor   1.00000000e+00  1.00000000e-04  1.00000000e+03 Kp   1.00000000e-01  0.00000000e+00       1
 KpKx5_1  log  factor   1.00000000e+00  1.00000000e-04  1.00000000e+03 Kp   1.50000000e+02  0.00000000e+00       1
 KpKx5_2  log  factor   1.00000000e+00  1.00000000e-04  1.00000000e+03 Kp   1.50000000e+02  0.00000000e+00       1
 KpKx5_3  log  factor   1.00000000e+00  1.00000000e-04  1.00000000e+03 Kp   1.50000000e+02  0.00000000e+00       1
 KpKx5_4  log  factor   1.00000000e+00  1.00000000e-04  1.00000000e+03 Kp   1.50000000e+02  0.00000000e+00       1
 KpKx5_5  log  factor   1.00000000e+00  1.00000000e-04  1.00000000e+03 Kp   1.50000000e+02  0.00000000e+00       1
 KpKx5_6  log  factor   1.00000000e+00  1.00000000e-04  1.00000000e+03 Kp   1.50000000e+02  0.00000000e+00       1
 KpKx5_7  log  factor   1.00000000e+00  1.00000000e-04  1.00000000e+03 Kp   1.50000000e+02  0.00000000e+00       1
 KpKx5_8  log  factor   1.00000000e+00  1.00000000e-04  1.00000000e+03 Kp   1.50000000e+02  0.00000000e+00       1
 KpKx5_9  log  factor   1.00000000e+00  1.00000000e-04  1.00000000e+03 Kp   1.50000000e+02  0.00000000e+00       1
 KpKx5_10  log  factor   1.00000000e+00  1.00000000e-04  1.00000000e+03 Kp   1.50000000e+02  0.00000000e+00       1
 KpKx5_11  log  factor   1.00000000e+00  1.00000000e-04  1.00000000e+03 Kp   1.50000000e+02  0.00000000e+00       1
 KpKx5_12  log  factor   1.00000000e+00  1.00000000e-04  1.00000000e+03 Kp   1.50000000e+02  0.00000000e+00       1
 KpKx5_13  log  factor   1.00000000e+00  1.00000000e-04  1.00000000e+03 Kp   1.50000000e+02  0.00000000e+00       1
 KpKx5_14  log  factor   1.00000000e+00  1.00000000e-04  1.00000000e+03 Kp   1.50000000e+02  0.00000000e+00       1
 KpKx5_15  log  factor   1.00000000e+00  1.00000000e-04  1.00000000e+03 Kp   1.50000000e+02  0.00000000e+00       1
 KpKx5_16  log  factor   1.00000000e+00  1.00000000e-04  1.00000000e+03 Kp   1.50000000e+02  0.00000000e+00       1
 KpKx5_17  log  factor   1.00000000e+00  1.00000000e-04  1.00000000e+03 Kp   1.50000000e+02  0.00000000e+00       1
 KpKx5_18  log  factor   1.00000000e+00  1.00000000e-04  1.00000000e+03 Kp   1.50000000e+02  0.00000000e+00       1
 KpKx5_19  log  factor   1.00000000e+00  1.00000000e-04  1.00000000e+03 Kp   1.50000000e+02  0.00000000e+00       1
 KpKx6_1  log  factor   1.00000000e+00  1.00000000e-04  1.00000000e+03 Kp   1.00000000e-01  0.00000000e+00       1
 KpKx6_2  log  factor   1.00000000e+00  1.00000000e-04  1.00000000e+03 Kp   1.00000000e-01  0.00000000e+00       1
 KpKx6_3  log  factor   1.00000000e+00  1.00000000e-04  1.00000000e+03 Kp   1.00000000e-01  0.00000000e+00       1
 KpKx6_4  log  factor   1.00000000e+00  1.00000000e-04  1.00000000e+03 Kp   1.00000000e-01  0.00000000e+00       1
 KpKx6_5  log  factor   1.00000000e+00  1.00000000e-04  1.00000000e+03 Kp   1.00000000e-01  0.00000000e+00       1
 KpKx6_6  log  factor   1.00000000e+00  1.00000000e-04  1.00000000e+03 Kp   1.00000000e-01  0.00000000e+00       1
 KpKx6_7  log  factor   1.00000000e+00  1.00000000e-04  1.00000000e+03 Kp   1.00000000e-01  0.00000000e+00       1
 KpKx6_8  log  factor   1.00000000e+00  1.00000000e-04  1.00000000e+03 Kp   1.00000000e-01  0.00000000e+00       1
 KpKx6_9  log  factor   1.00000000e+00  1.00000000e-04  1.00000000e+03 Kp   1.00000000e-01  0.00000000e+00       1
 KpKx6_10  log  factor   1.00000000e+00  1.00000000e-04  1.00000000e+03 Kp   1.00000000e-01  0.00000000e+00       1
 KpKx6_11  log  factor   1.00000000e+00  1.00000000e-04  1.00000000e+03 Kp   1.00000000e-01  0.00000000e+00       1
 KpKx6_12  log  factor   1.00000000e+00  1.00000000e-04  1.00000000e+03 Kp   1.00000000e-01  0.00000000e+00       1
 KpKx6_13  log  factor   1.00000000e+00  1.00000000e-04  1.00000000e+03 Kp   1.00000000e-01  0.00000000e+00       1
 KpKx6_14  log  factor   1.00000000e+00  1.00000000e-04  1.00000000e+03 Kp   1.00000000e-01  0.00000000e+00       1
 KpKx6_15  log  factor   1.00000000e+00  1.00000000e-04  1.00000000e+03 Kp   1.00000000e-01  0.00000000e+00       1
 KpKx6_16  log  factor   1.00000000e+00  1.00000000e-04  1.00000000e+03 Kp   1.00000000e-01  0.00000000e+00       1
 KpKx6_17  log  factor   1.00000000e+00  1.00000000e-04  1.00000000e+03 Kp   1.00000000e-01  0.00000000e+00       1
 KpKx6_18  log  factor   1.00000000e+00  1.00000000e-04  1.00000000e+03 Kp   1.00000000e-01  0.00000000e+00       1
 KpKx6_19  log  factor   1.00000000e+00  1.00000000e-04  1.00000000e+03 Kp   1.00000000e-01  0.00000000e+00       1
 KpKx6_20  log  factor   1.00000000e+00  1.00000000e-04  1.00000000e+03 Kp   1.00000000e-01  0.00000000e+00       1
 KpKx6_21  log  factor   1.00000000e+00  1.00000000e-04  1.00000000e+03 Kp   1.00000000e-01  0.00000000e+00       1
 KpKx6_22  log  factor   1.00000000e+00  1.00000000e-04  1.00000000e+03 Kp   1.00000000e-01  0.00000000e+00       1
 KpKx6_23  log  factor   1.00000000e+00  1.00000000e-04  1.00000000e+03 Kp   1.00000000e-01  0.00000000e+00       1
 KpKx6_24  log  factor   1.00000000e+00  1.00000000e-04  1.00000000e+03 Kp   1.00000000e-01  0.00000000e+00       1
 KpKx6_25  log  factor   1.00000000e+00  1.00000000e-04  1.00000000e+03 Kp   1.00000000e-01  0.00000000e+00       1
 KpKx6_26  log  factor   1.00000000e+00  1.00000000e-04  1.00000000e+03 Kp   1.00000000e-01  0.00000000e+00       1
 KpKx6_27  log  factor   1.00000000e+00  1.00000000e-04  1.00000000e+03 Kp   1.00000000e-01  0.00000000e+00       1
 KpKx6_28  log  factor   1.00000000e+00  1.00000000e-04  1.00000000e+03 Kp   1.00000000e-01  0.00000000e+00       1
 KpKx6_29  log  factor   1.00000000e+00  1.00000000e-04  1.00000000e+03 Kp   1.00000000e-01  0.00000000e+00       1
 KpKx6_30  log  factor   1.00000000e+00  1.00000000e-04  1.00000000e+03 Kp   1.00000000e-01  0.00000000e+00       1
 KpKx6_31  log  factor   1.00000000e+00  1.00000000e-04  1.00000000e+03 Kp   1.00000000e-01  0.00000000e+00       1
 KpKx6_32  log  factor   1.00000000e+00  1.00000000e-04  1.00000000e+03 Kp   1.00000000e-01  0.00000000e+00       1
 KpKx6_33  log  factor   1.00000000e+00  1.00000000e-04  1.00000000e+03 Kp   1.00000000e-01  0.00000000e+00       1
 KpKx6_34  log  factor   1.00000000e+00  1.00000000e-04  1.00000000e+03 Kp   1.00000000e-01  0.00000000e+00       1
 KpKx6_35  log  factor   1.00000000e+00  1.00000000e-04  1.00000000e+03 Kp   1.00000000e-01  0.00000000e+00       1
 KpKx6_36  log  factor   1.00000000e+00  1.00000000e-04  1.00000000e+03 Kp   1.00000000e-01  0.00000000e+00       1
 KpKx6_37  log  factor   1.00000000e+00  1.00000000e-04  1.00000000e+03 Kp   1.00000000e-01  0.00000000e+00       1
 KpKx6_38  log  factor   1.00000000e+00  1.00000000e-04  1.00000000e+03 Kp   1.00000000e-01  0.00000000e+00       1
 KpKx6_39  log  factor   1.00000000e+00  1.00000000e-04  1.00000000e+03 Kp   1.00000000e-01  0.00000000e+00       1
 KpKx6_40  log  factor   1.00000000e+00  1.00000000e-04  1.00000000e+03 Kp   1.00000000e-01  0.00000000e+00       1
 KpKx6_41  log  factor   1.00000000e+00  1.00000000e-04  1.00000000e+03 Kp   1.00000000e-01  0.00000000e+00       1
 KpKx6_42  log  factor   1.00000000e+00  1.00000000e-04  1.00000000e+03 Kp   1.00000000e-01  0.00000000e+00       1
 KpKx6_43  log  factor   1.00000000e+00  1.00000000e-04  1.00000000e+03 Kp   1.00000000e-01  0.00000000e+00       1
 KpKx6_44  log  factor   1.00000000e+00  1.00000000e-04  1.00000000e+03 Kp   1.00000000e-01  0.00000000e+00       1
 KpKx6_45  log  factor   1.00000000e+00  1.00000000e-04  1.00000000e+03 Kp   1.00000000e-01  0.00000000e+00       1
 KpKx6_46  log  factor   1.00000000e+00  1.00000000e-04  1.00000000e+03 Kp   1.00000000e-01  0.00000000e+00       1
 KpKx6_47  log  factor   1.00000000e+00  1.00000000e-04  1.00000000e+03 Kp   1.00000000e-01  0.00000000e+00       1
 KpKx6_48  log  factor   1.00000000e+00  1.00000000e-04  1.00000000e+03 Kp   1.00000000e-01  0.00000000e+00       1
 KpKx7_1  log  factor   1.00000000e+00  1.00000000e-04  1.00000000e+03 Kp   1.94000000e+02  0.00000000e+00       1
 KpKx7_2  log  factor   1.00000000e+00  1.00000000e-04  1.00000000e+03 Kp   1.94000000e+02  0.00000000e+00       1
 KpKx7_3  log  factor   1.00000000e+00  1.00000000e-04  1.00000000e+03 Kp   1.94000000e+02  0.00000000e+00       1
 KpKx7_4  log  factor   1.00000000e+00  1.00000000e-04  1.00000000e+03 Kp   1.94000000e+02  0.00000000e+00       1
 KpKx7_5  log  factor   1.00000000e+00  1.00000000e-04  1.00000000e+03 Kp   1.94000000e+02  0.00000000e+00       1
 KpKx7_6  log  factor   1.00000000e+00  1.00000000e-04  1.00000000e+03 Kp   1.94000000e+02  0.00000000e+00       1
 KpKx7_7  log  factor   1.00000000e+00  1.00000000e-04  1.00000000e+03 Kp   1.94000000e+02  0.00000000e+00       1
 KpKx7_8  log  factor   1.00000000e+00  1.00000000e-04  1.00000000e+03 Kp   1.94000000e+02  0.00000000e+00       1
 KpKx7_9  log  factor   1.00000000e+00  1.00000000e-04  1.00000000e+03 Kp   1.94000000e+02  0.00000000e+00       1
 KpKx7_10  log  factor   1.00000000e+00  1.00000000e-04  1.00000000e+03 Kp   1.94000000e+02  0.00000000e+00       1
 KpKx7_11  log  factor   1.00000000e+00  1.00000000e-04  1.00000000e+03 Kp   1.94000000e+02  0.00000000e+00       1
 KpKx7_12  log  factor   1.00000000e+00  1.00000000e-04  1.00000000e+03 Kp   1.94000000e+02  0.00000000e+00       1
 KpKx7_13  log  factor   1.00000000e+00  1.00000000e-04  1.00000000e+03 Kp   1.94000000e+02  0.00000000e+00       1
 KpKx7_14  log  factor   1.00000000e+00  1.00000000e-04  1.00000000e+03 Kp   1.94000000e+02  0.00000000e+00       1
 KpKx7_15  log  factor   1.00000000e+00  1.00000000e-04  1.00000000e+03 Kp   1.94000000e+02  0.00000000e+00       1
 KpKx7_16  log  factor   1.00000000e+00  1.00000000e-04  1.00000000e+03 Kp   1.94000000e+02  0.00000000e+00       1
 KpKx7_17  log  factor   1.00000000e+00  1.00000000e-04  1.00000000e+03 Kp   1.94000000e+02  0.00000000e+00       1
 KpKx7_18  log  factor   1.00000000e+00  1.00000000e-04  1.00000000e+03 Kp   1.94000000e+02  0.00000000e+00       1
 KpKx7_19  log  factor   1.00000000e+00  1.00000000e-04  1.00000000e+03 Kp   1.94000000e+02  0.00000000e+00       1
 KpKx7_20  log  factor   1.00000000e+00  1.00000000e-04  1.00000000e+03 Kp   1.94000000e+02  0.00000000e+00       1
 KpKx8_1  log  factor   1.00000000e+00  1.00000000e-04  1.00000000e+03 Kp   1.00000000e-01  0.00000000e+00       1
 KpKx8_2  log  factor   1.00000000e+00  1.00000000e-04  1.00000000e+03 Kp   1.00000000e-01  0.00000000e+00       1
 KpKx8_3  log  factor   1.00000000e+00  1.00000000e-04  1.00000000e+03 Kp   1.00000000e-01  0.00000000e+00       1
 KpKx8_4  log  factor   1.00000000e+00  1.00000000e-04  1.00000000e+03 Kp   1.00000000e-01  0.00000000e+00       1
 KpKx8_5  log  factor   1.00000000e+00  1.00000000e-04  1.00000000e+03 Kp   1.00000000e-01  0.00000000e+00       1
 KpKx8_6  log  factor   1.00000000e+00  1.00000000e-04  1.00000000e+03 Kp   1.00000000e-01  0.00000000e+00       1
 KpKx8_7  log  factor   1.00000000e+00  1.00000000e-04  1.00000000e+03 Kp   1.00000000e-01  0.00000000e+00       1
 KpKx8_8  log  factor   1.00000000e+00  1.00000000e-04  1.00000000e+03 Kp   1.00000000e-01  0.00000000e+00       1
 KpKx8_9  log  factor   1.00000000e+00  1.00000000e-04  1.00000000e+03 Kp   1.00000000e-01  0.00000000e+00       1
 KpKx8_10  log  factor   1.00000000e+00  1.00000000e-04  1.00000000e+03 Kp   1.00000000e-01  0.00000000e+00       1
 KpKx8_11  log  factor   1.00000000e+00  1.00000000e-04  1.00000000e+03 Kp   1.00000000e-01  0.00000000e+00       1
 KpKx8_12  log  factor   1.00000000e+00  1.00000000e-04  1.00000000e+03 Kp   1.00000000e-01  0.00000000e+00       1
 KpKx8_13  log  factor   1.00000000e+00  1.00000000e-04  1.00000000e+03 Kp   1.00000000e-01  0.00000000e+00       1
 KpKx8_14  log  factor   1.00000000e+00  1.00000000e-04  1.00000000e+03 Kp   1.00000000e-01  0.00000000e+00       1
 KpKx8_15  log  factor   1.00000000e+00  1.00000000e-04  1.00000000e+03 Kp   1.00000000e-01  0.00000000e+00       1
 KpKx8_16  log  factor   1.00000000e+00  1.00000000e-04  1.00000000e+03 Kp   1.00000000e-01  0.00000000e+00       1
 KpKx8_17  log  factor   1.00000000e+00  1.00000000e-04  1.00000000e+03 Kp   1.00000000e-01  0.00000000e+00       1
 KpKx8_18  log  factor   1.00000000e+00  1.00000000e-04  1.00000000e+03 Kp   1.00000000e-01  0.00000000e+00       1
 KpKx8_19  log  factor   1.00000000e+00  1.00000000e-04  1.00000000e+03 Kp   1.00000000e-01  0.00000000e+00       1
 KpKx8_20  log  factor   1.00000000e+00  1.00000000e-04  1.00000000e+03 Kp   1.00000000e-01  0.00000000e+00       1