pcf
* control data
restart estimation
194  15110  6  0  7
5  3  single  point  1  0  0
1.000000e+001  -3.000000e+000  3.000000e-001  1.000000e-002  7 999 lamforgive derforgive
1.000000e+001  1.000000e+001  1.000000e-003
1.000000e-001 1 noaui noboundscale
0  1.000000e-002  3  3  1.000000e-002  3 0 0
0  0  0   PARSAVEITN
* parameter groups
Kx     relative   1.000000e-002  0.000000e+000  switch  2.000000e+000  parabolic
Kz     relative   1.000000e-002  0.000000e+000  switch  2.000000e+000  parabolic
Stor   relative   1.000000e-002  0.000000e+000  switch  2.000000e+000  parabolic
Rch    relative   1.000000e-002  0.000000e+000  switch  2.000000e+000  parabolic
BCCond    relative   1.000000e-002  0.000000e+000  switch  2.000000e+000  parabolic
Shead    relative   1.000000e-002  0.000000e+000  switch  2.000000e+000  parabolic
* parameter data
GHBCond    fixed    factor    1.0000000E+00    1.0000000E-05    1.0000000E+04    BCCond    6.0000000E+05    0    1
RIVCond    fixed    factor    1.0000000E+00    1.0000000E-05    1.0000000E+04    BCCond    6.0000000E+05    0    1
SHM1    fixed    factor    1.0000000E+00    1.0000000E-05    1.0000000E+04    Shead    1.0000000E+00    0    1
SHM2    fixed    factor    1.0000000E+00    1.0000000E-05    1.0000000E+04    Shead    1.0000000E+00    0    1
SHM3    fixed    factor    1.0000000E+00    1.0000000E-05    1.0000000E+04    Shead    1.0000000E+00    0    1
SHM4    fixed    factor    1.0000000E+00    1.0000000E-05    1.0000000E+04    Shead    1.0000000E+00    0    1
SHM5    fixed    factor    1.0000000E+00    1.0000000E-05    1.0000000E+04    Shead    1.0000000E+00    0    1
SHM6    fixed    factor    1.0000000E+00    1.0000000E-05    1.0000000E+04    Shead    1.0000000E+00    0    1
SHM7    fixed    factor    1.0000000E+00    1.0000000E-05    1.0000000E+04    Shead    1.0000000E+00    0    1
SHM8    fixed    factor    1.0000000E+00    1.0000000E-05    1.0000000E+04    Shead    1.0000000E+00    0    1
SHM9    fixed    factor    1.0000000E+00    1.0000000E-05    1.0000000E+04    Shead    1.0000000E+00    0    1
SHM10    fixed    factor    1.0000000E+00    1.0000000E-05    1.0000000E+04    Shead    1.0000000E+00    0    1
SHM11    fixed    factor    1.0000000E+00    1.0000000E-05    1.0000000E+04    Shead    1.0000000E+00    0    1
SHM12    fixed    factor    1.0000000E+00    1.0000000E-05    1.0000000E+04    Shead    1.0000000E+00    0    1
SHM13    fixed    factor    1.0000000E+00    1.0000000E-05    1.0000000E+04    Shead    1.0000000E+00    0    1
SHM14    fixed    factor    1.0000000E+00    1.0000000E-05    1.0000000E+04    Shead    1.0000000E+00    0    1
SHM15    fixed    factor    1.0000000E+00    1.0000000E-05    1.0000000E+04    Shead    1.0000000E+00    0    1
SHM16    fixed    factor    1.0000000E+00    1.0000000E-05    1.0000000E+04    Shead    1.0000000E+00    0    1
SHM17    fixed    factor    1.0000000E+00    1.0000000E-05    1.0000000E+04    Shead    1.0000000E+00    0    1
SHM18    fixed    factor    1.0000000E+00    1.0000000E-05    1.0000000E+04    Shead    1.0000000E+00    0    1
SHM19    fixed    factor    1.0000000E+00    1.0000000E-05    1.0000000E+04    Shead    1.0000000E+00    0    1
Kx1    log    factor    1.0000000E+00    1.0000000E-01    1.0000000E+03    Kx    1.5000000E+02    0    1
Kx2    log    factor    1.0000000E+00    1.0000000E-08    1.0000000E+03    Kx    1.0000000E-00    0    1
Kx3    log    factor    1.0000000E+00    1.0000000E-01    1.0000000E+03    Kx    1.5000000E+02    0    1
Kx4    log    factor    1.0000000E+00    1.0000000E-08    1.0000000E+03    Kx    1.0000000E-00    0    1
Kx5    log    factor    1.0000000E+00    1.0000000E-01    1.0000000E+03    Kx    1.5000000E+02    0    1
Kx6    log    factor    1.0000000E+00    1.0000000E-08    1.0000000E+03    Kx    1.0000000E-00    0    1
Kx7    log    factor    1.0000000E+00    1.0000000E-01    1.0000000E+03    Kx    1.9400000E+02    0    1
Kx8    log    factor    1.0000000E+00    1.0000000E-08    1.0000000E+03    Kx    1.0000000E-00    0    1
Kx9    log    factor    1.0000000E+00    1.0000000E-01    1.0000000E+03    Kx    5.4000000E+01    0    1
Kx10    log    factor    1.0000000E+00    1.0000000E-08    1.0000000E+03    Kx    1.0000000E-00    0    1
Kx11    log    factor    1.0000000E+00    1.0000000E-01    1.0000000E+03    Kx    1.3600000E+02    0    1
Kx12    log    factor    1.0000000E+00    1.0000000E-08    1.0000000E+03    Kx    1.0000000E-02    0    1
Kx13    log    factor    1.0000000E+00    1.0000000E-01    1.0000000E+04    Kx    7.0000000E+01    0    1
Kx14    log    factor    1.0000000E+00    1.0000000E-08    1.0000000E+03    Kx    1.0000000E-04    0    1
Kx15    log    factor    1.0000000E+00    1.0000000E-01    1.0000000E+03    Kx    7.5000000E+01    0    1
Kx16    log    factor    1.0000000E+00    1.0000000E-08    1.0000000E+03    Kx    1.0000000E-06    0    1
Kx17    log    factor    1.0000000E+00    1.0000000E-01    1.0000000E+03    Kx    2.0000000E+01    0    1
Kx18    log    factor    1.0000000E+00    1.0000000E-08    1.0000000E+03    Kx    1.0000000E-06    0    1
Kx19    log    factor    1.0000000E+00    1.0000000E-01    1.0000000E+03    Kx    9.8000000E+01    0    1
Kx20    log    factor    1.0000000E+00    1.0000000E-08    1.0000000E+03    Kx    1.0000000E-06    0    1
Kx21    log    factor    1.0000000E+00    1.0000000E-01    1.0000000E+03    Kx    2.2000000E+01    0    1
Kx22    log    factor    1.0000000E+00    1.0000000E-08    1.0000000E+03    Kx    1.0000000E-06    0    1
Kx23    log    factor    1.0000000E+00    1.0000000E-01    1.0000000E+03    Kx    1.0000000E+02    0    1
Kx24    log    factor    1.0000000E+00    1.0000000E-08    1.0000000E+03    Kx    1.0000000E-06    0    1
Kx25    log    factor    1.0000000E+00    1.0000000E-01    1.0000000E+03    Kx    5.0000000E+01    0    1
Kx26    log    factor    1.0000000E+00    1.0000000E-08    1.0000000E+03    Kx    1.0000000E-06    0    1
Kx28    log    factor    1.0000000E+00    1.0000000E-08    1.0000000E+03    Kx    1.0000000E-04    0    1
Kx36    log    factor    1.0000000E+00    1.0000000E-08    1.0000000E+03    Kx    1.0000000E-01    0    1
Kx38    log    factor    1.0000000E+00    1.0000000E-01    1.0000000E+03    Kx    5.0000000E+01    0    1
Kx39    log    factor    1.0000000E+00    1.0000000E-01    1.0000000E+03    Kx    5.0000000E+01    0    1
Kx40    log    factor    1.0000000E+00    1.0000000E-01    1.0000000E+05    Kx    1.0000000E+03    0    1
Kx41    log    factor    1.0000000E+00    1.0000000E-01    1.0000000E+03    Kx    3.0000000E+01    0    1
Kx48    log    factor    1.0000000E+00    1.0000000E-01    1.0000000E+03    Kx    5.0000000E+01    0    1
Kx49    log    factor    1.0000000E+00    1.0000000E-01    1.0000000E+03    Kx    5.0000000E+01    0    1
Kx95    log    factor    1.0000000E+00    1.0000000E-08    1.0000000E+03    Kx    1.0000000E-01    0    1
Kz1    log    factor    1.0000000E+00    1.0000000E-02    1.0000000E+03    Kz    1.5000000E+01    0    1
Kz2    log    factor    1.0000000E+00    1.0000000E-08    1.0000000E+03    Kz    1.0000000E-00    0    1
Kz3    log    factor    1.0000000E+00    1.0000000E-02    1.0000000E+03    Kz    1.5000000E+01    0    1
Kz4    log    factor    1.0000000E+00    1.0000000E-08    1.0000000E+03    Kz    1.0000000E-00    0    1
Kz5    log    factor    1.0000000E+00    1.0000000E-02    1.0000000E+03    Kz    1.5000000E+01    0    1
Kz6    log    factor    1.0000000E+00    1.0000000E-08    1.0000000E+03    Kz    1.0000000E-00    0    1
Kz7    log    factor    1.0000000E+00    1.0000000E-02    1.0000000E+03    Kz    4.0000000E+01    0    1
Kz8    log    factor    1.0000000E+00    1.0000000E-08    1.0000000E+03    Kz    1.0000000E-00    0    1
Kz9    log    factor    1.0000000E+00    1.0000000E-02    1.0000000E+03    Kz    5.0000000E+00    0    1
Kz10    log    factor    1.0000000E+00    1.0000000E-08    1.0000000E+03    Kz    1.0000000E-00    0    1
Kz11    log    factor    1.0000000E+00    1.0000000E-02    1.0000000E+03    Kz    1.5000000E+01    0    1
Kz12    log    factor    1.0000000E+00    1.0000000E-08    1.0000000E+03    Kz    1.0000000E-02    0    1
Kz13    log    factor    1.0000000E+00    1.0000000E-02    1.0000000E+03    Kz    7.0000000E+00    0    1
Kz14    log    factor    1.0000000E+00    1.0000000E-08    1.0000000E+03    Kz    1.0000000E-04    0    1
Kz15    log    factor    1.0000000E+00    1.0000000E-02    1.0000000E+03    Kz    7.5000000E-01    0    1
Kz16    log    factor    1.0000000E+00    1.0000000E-08    1.0000000E+03    Kz    1.0000000E-06    0    1
Kz17    log    factor    1.0000000E+00    1.0000000E-02    1.0000000E+03    Kz    2.0000000E-01    0    1
Kz18    log    factor    1.0000000E+00    1.0000000E-08    1.0000000E+03    Kz    1.0000000E-06    0    1
Kz19    log    factor    1.0000000E+00    1.0000000E-02    1.0000000E+03    Kz    1.0000000E+01    0    1
Kz20    log    factor    1.0000000E+00    1.0000000E-08    1.0000000E+03    Kz    1.0000000E-06    0    1
Kz21    log    factor    1.0000000E+00    1.0000000E-02    1.0000000E+03    Kz    2.0000000E-01    0    1
Kz22    log    factor    1.0000000E+00    1.0000000E-08    1.0000000E+03    Kz    1.0000000E-06    0    1
Kz23    log    factor    1.0000000E+00    1.0000000E-02    1.0000000E+03    Kz    1.0000000E+01    0    1
Kz24    log    factor    1.0000000E+00    1.0000000E-08    1.0000000E+03    Kz    1.0000000E-06    0    1
Kz25    log    factor    1.0000000E+00    1.0000000E-02    1.0000000E+03    Kz    5.0000000E+00    0    1
Kz26    log    factor    1.0000000E+00    1.0000000E-08    1.0000000E+03    Kz    1.0000000E-06    0    1
Kz28    log    factor    1.0000000E+00    1.0000000E-08    1.0000000E+03    Kz    1.0000000E-04    0    1
Kz36    log    factor    1.0000000E+00    1.0000000E-08    1.0000000E+03    Kz    1.0000000E-01    0    1
Kz38    log    factor    1.0000000E+00    1.0000000E-02    1.0000000E+03    Kz    5.0000000E-01    0    1
Kz39    log    factor    1.0000000E+00    1.0000000E-02    1.0000000E+03    Kz    5.0000000E-01    0    1
Kz40    log    factor    1.0000000E+00    1.0000000E-02    1.0000000E+03    Kz    1.0000000E+03    0    1
Kz41    log    factor    1.0000000E+00    1.0000000E-02    1.0000000E+03    Kz    1.0000000E+01    0    1
Kz48    log    factor    1.0000000E+00    1.0000000E-02    1.0000000E+03    Kz    5.0000000E-01    0    1
Kz49    log    factor    1.0000000E+00    1.0000000E-02    1.0000000E+03    Kz    5.0000000E-01    0    1
Kz95    log    factor    1.0000000E+00    1.0000000E-08    1.0000000E+03    Kz    1.0000000E-01    0    1
Ss1    log    factor    1.0000000E+00    1.0000000E-06    1.0000000E+00    Stor    1.0000000E-05    0    1
Ss2    log    factor    1.0000000E+00    1.0000000E-08    1.0000000E+00    Stor    5.0000000E-07    0    1
Ss3    log    factor    1.0000000E+00    1.0000000E-06    1.0000000E+00    Stor    1.0000000E-05    0    1
Ss4    log    factor    1.0000000E+00    1.0000000E-08    1.0000000E+00    Stor    5.0000000E-07    0    1
Ss5    log    factor    1.0000000E+00    1.0000000E-06    1.0000000E+00    Stor    1.0000000E-05    0    1
Ss6    log    factor    1.0000000E+00    1.0000000E-08    1.0000000E+00    Stor    5.0000000E-07    0    1
Ss7    log    factor    1.0000000E+00    1.0000000E-06    1.0000000E+00    Stor    1.0000000E-05    0    1
Ss8    log    factor    1.0000000E+00    1.0000000E-08    1.0000000E+00    Stor    5.0000000E-07    0    1
Ss9    log    factor    1.0000000E+00    1.0000000E-06    1.0000000E+00    Stor    1.0000000E-05    0    1
Ss10    log    factor    1.0000000E+00    1.0000000E-08    1.0000000E+00    Stor    5.0000000E-07    0    1
Ss11    log    factor    1.0000000E+00    1.0000000E-06    1.0000000E+00    Stor    1.0000000E-05    0    1
Ss12    log    factor    1.0000000E+00    1.0000000E-08    1.0000000E+00    Stor    5.0000000E-07    0    1
Ss13    log    factor    1.0000000E+00    1.0000000E-06    1.0000000E+00    Stor    1.0000000E-05    0    1
Ss14    log    factor    1.0000000E+00    1.0000000E-08    1.0000000E+00    Stor    5.0000000E-07    0    1
Ss15    log    factor    1.0000000E+00    1.0000000E-06    1.0000000E+00    Stor    1.0000000E-05    0    1
Ss16    log    factor    1.0000000E+00    1.0000000E-08    1.0000000E+00    Stor    5.0000000E-07    0    1
Ss17    log    factor    1.0000000E+00    1.0000000E-06    1.0000000E+00    Stor    1.0000000E-05    0    1
Ss18    log    factor    1.0000000E+00    1.0000000E-08    1.0000000E+00    Stor    5.0000000E-07    0    1
Ss19    log    factor    1.0000000E+00    1.0000000E-06    1.0000000E+00    Stor    1.0000000E-05    0    1
Ss20    log    factor    1.0000000E+00    1.0000000E-08    1.0000000E+00    Stor    5.0000000E-07    0    1
Ss21    log    factor    1.0000000E+00    1.0000000E-06    1.0000000E+00    Stor    1.0000000E-05    0    1
Ss22    log    factor    1.0000000E+00    1.0000000E-08    1.0000000E+00    Stor    5.0000000E-07    0    1
Ss23    log    factor    1.0000000E+00    1.0000000E-06    1.0000000E+00    Stor    1.0000000E-05    0    1
Ss24    log    factor    1.0000000E+00    1.0000000E-08    1.0000000E+00    Stor    5.0000000E-07    0    1
Ss25    log    factor    1.0000000E+00    1.0000000E-06    1.0000000E+00    Stor    1.0000000E-05    0    1
Ss26    log    factor    1.0000000E+00    1.0000000E-08    1.0000000E+00    Stor    5.0000000E-07    0    1
Ss28    log    factor    1.0000000E+00    1.0000000E-06    1.0000000E+00    Stor    5.0000000E-07    0    1
Ss38    log    factor    1.0000000E+00    1.0000000E-06    1.0000000E+00    Stor    1.0000000E-05    0    1
Ss39    log    factor    1.0000000E+00    1.0000000E-06    1.0000000E+00    Stor    1.0000000E-05    0    1
Ss40    log    factor    1.0000000E+00    1.0000000E-06    1.0000000E+00    Stor    2.5000000E-01    0    1
Ss41    log    factor    1.0000000E+00    1.0000000E-06    1.0000000E+00    Stor    2.5000000E-01    0    1
Ss48    log    factor    1.0000000E+00    1.0000000E-06    1.0000000E+00    Stor    1.0000000E-05    0    1
Ss49    log    factor    1.0000000E+00    1.0000000E-06    1.0000000E+00    Stor    1.0000000E-05    0    1
Ss95    log    factor    1.0000000E+00    1.0000000E-08    1.0000000E+00    Stor    5.0000000E-07    0    1
Sy1    log    factor    1.0000000E+00    1.0000000E-01    1.0000000E+00    Stor    2.5000000E-01    0    1
Sy2    log    factor    1.0000000E+00    1.0000000E-01    1.0000000E+00    Stor    5.0000000E-01    0    1
Sy3    log    factor    1.0000000E+00    1.0000000E-01    1.0000000E+00    Stor    2.5000000E-01    0    1
Sy4    log    factor    1.0000000E+00    1.0000000E-01    1.0000000E+00    Stor    5.0000000E-01    0    1
Sy5    log    factor    1.0000000E+00    1.0000000E-01    1.0000000E+00    Stor    2.5000000E-01    0    1
Sy6    log    factor    1.0000000E+00    1.0000000E-01    1.0000000E+00    Stor    5.0000000E-01    0    1
Sy7    log    factor    1.0000000E+00    1.0000000E-01    1.0000000E+00    Stor    2.5000000E-01    0    1
Sy8    log    factor    1.0000000E+00    1.0000000E-01    1.0000000E+00    Stor    5.0000000E-01    0    1
Sy9    log    factor    1.0000000E+00    1.0000000E-01    1.0000000E+00    Stor    2.5000000E-01    0    1
Sy10    log    factor    1.0000000E+00    1.0000000E-01    1.0000000E+00    Stor    5.0000000E-01    0    1
Sy11    log    factor    1.0000000E+00    1.0000000E-01    1.0000000E+00    Stor    2.5000000E-01    0    1
Sy12    log    factor    1.0000000E+00    1.0000000E-01    1.0000000E+00    Stor    5.0000000E-01    0    1
Sy13    log    factor    1.0000000E+00    1.0000000E-01    1.0000000E+00    Stor    2.5000000E-01    0    1
Sy14    log    factor    1.0000000E+00    1.0000000E-01    1.0000000E+00    Stor    5.0000000E-01    0    1
Sy15    log    factor    1.0000000E+00    1.0000000E-01    1.0000000E+00    Stor    2.5000000E-01    0    1
Sy16    log    factor    1.0000000E+00    1.0000000E-01    1.0000000E+00    Stor    5.0000000E-01    0    1
Sy17    log    factor    1.0000000E+00    1.0000000E-01    1.0000000E+00    Stor    2.5000000E-01    0    1
Sy18    log    factor    1.0000000E+00    1.0000000E-01    1.0000000E+00    Stor    5.0000000E-01    0    1
Sy19    log    factor    1.0000000E+00    1.0000000E-01    1.0000000E+00    Stor    2.5000000E-01    0    1
Sy20    log    factor    1.0000000E+00    1.0000000E-01    1.0000000E+00    Stor    5.0000000E-01    0    1
Sy21    log    factor    1.0000000E+00    1.0000000E-01    1.0000000E+00    Stor    2.5000000E-01    0    1
Sy22    log    factor    1.0000000E+00    1.0000000E-01    1.0000000E+00    Stor    5.0000000E-01    0    1
Sy23    log    factor    1.0000000E+00    1.0000000E-01    1.0000000E+00    Stor    2.5000000E-01    0    1
Sy24    log    factor    1.0000000E+00    1.0000000E-01    1.0000000E+00    Stor    5.0000000E-01    0    1
Sy25    log    factor    1.0000000E+00    1.0000000E-01    1.0000000E+00    Stor    2.5000000E-01    0    1
Sy26    log    factor    1.0000000E+00    1.0000000E-01    1.0000000E+00    Stor    5.0000000E-01    0    1
Sy28    log    factor    1.0000000E+00    1.0000000E-01    1.0000000E+00    Stor    5.0000000E-01    0    1
Sy38    log    factor    1.0000000E+00    1.0000000E-01    1.0000000E+00    Stor    2.5000000E-01    0    1
Sy39    log    factor    1.0000000E+00    1.0000000E-01    1.0000000E+00    Stor    2.5000000E-01    0    1
Sy40    log    factor    1.0000000E+00    1.0000000E-01    1.0000000E+00    Stor    2.5000000E-01    0    1
Sy41    log    factor    1.0000000E+00    1.0000000E-01    1.0000000E+00    Stor    2.5000000E-01    0    1
Sy48    log    factor    1.0000000E+00    1.0000000E-01    1.0000000E+00    Stor    2.5000000E-01    0    1
Sy49    log    factor    1.0000000E+00    1.0000000E-01    1.0000000E+00    Stor    2.5000000E-01    0    1
Sy95    log    factor    1.0000000E+00    1.0000000E-01    1.0000000E+00    Stor    5.0000000E-01    0    1
rm1    log    factor    1.0000000E+00    1.0000000E-01    2.0000000E+00    Rch    1.0000000E+00    0    1
rm2    log    factor    1.0000000E+00    1.0000000E-01    2.0000000E+00    Rch    1.0000000E+00    0    1
rm3    log    factor    1.0000000E+00    1.0000000E-01    2.0000000E+00    Rch    1.0000000E+00    0    1
rm4    log    factor    1.0000000E+00    1.0000000E-01    2.0000000E+00    Rch    1.0000000E+00    0    1
rm5    log    factor    1.0000000E+00    1.0000000E-01    2.0000000E+00    Rch    1.0000000E+00    0    1
rm6    log    factor    1.0000000E+00    1.0000000E-01    2.0000000E+00    Rch    1.0000000E+00    0    1
rm7    log    factor    1.0000000E+00    1.0000000E-01    2.0000000E+00    Rch    1.0000000E+00    0    1
rm8    log    factor    1.0000000E+00    1.0000000E-01    2.0000000E+00    Rch    1.0000000E+00    0    1
rm9    log    factor    1.0000000E+00    1.0000000E-01    2.0000000E+00    Rch    1.0000000E+00    0    1
rm10    log    factor    1.0000000E+00    1.0000000E-01    2.0000000E+00    Rch    1.0000000E+00    0    1
rm11    log    factor    1.0000000E+00    1.0000000E-01    2.0000000E+00    Rch    1.0000000E+00    0    1
rm12    log    factor    1.0000000E+00    1.0000000E-01    2.0000000E+00    Rch    1.0000000E+00    0    1
rm13    log    factor    1.0000000E+00    1.0000000E-01    2.0000000E+00    Rch    1.0000000E+00    0    1
rm14    log    factor    1.0000000E+00    1.0000000E-01    2.0000000E+00    Rch    1.0000000E+00    0    1
rm15    log    factor    1.0000000E+00    1.0000000E-01    2.0000000E+00    Rch    1.0000000E+00    0    1
rm16    log    factor    1.0000000E+00    1.0000000E-01    2.0000000E+00    Rch    1.0000000E+00    0    1
rm17    log    factor    1.0000000E+00    1.0000000E-01    2.0000000E+00    Rch    1.0000000E+00    0    1
rm18    log    factor    1.0000000E+00    1.0000000E-01    2.0000000E+00    Rch    1.0000000E+00    0    1
rm19    log    factor    1.0000000E+00    1.0000000E-01    2.0000000E+00    Rch    1.0000000E+00    0    1
rm20    log    factor    1.0000000E+00    1.0000000E-01    2.0000000E+00    Rch    1.0000000E+00    0    1
rm21    log    factor    1.0000000E+00    1.0000000E-01    2.0000000E+00    Rch    1.0000000E+00    0    1
rm22    log    factor    1.0000000E+00    1.0000000E-01    2.0000000E+00    Rch    1.0000000E+00    0    1
rm23    log    factor    1.0000000E+00    1.0000000E-01    2.0000000E+00    Rch    1.0000000E+00    0    1
rm24    log    factor    1.0000000E+00    1.0000000E-01    2.0000000E+00    Rch    1.0000000E+00    0    1
rm25    log    factor    1.0000000E+00    1.0000000E-01    2.0000000E+00    Rch    1.0000000E+00    0    1
rm26    log    factor    1.0000000E+00    1.0000000E-01    2.0000000E+00    Rch    1.0000000E+00    0    1
rm27    log    factor    1.0000000E+00    1.0000000E-01    2.0000000E+00    Rch    1.0000000E+00    0    1
rm28    log    factor    1.0000000E+00    1.0000000E-01    2.0000000E+00    Rch    1.0000000E+00    0    1
rm29    log    factor    1.0000000E+00    1.0000000E-01    2.0000000E+00    Rch    1.0000000E+00    0    1
rm30    log    factor    1.0000000E+00    1.0000000E-01    2.0000000E+00    Rch    1.0000000E+00    0    1
rm31    log    factor    1.0000000E+00    1.0000000E-01    2.0000000E+00    Rch    1.0000000E+00    0    1
rm32    log    factor    1.0000000E+00    1.0000000E-01    2.0000000E+00    Rch    1.0000000E+00    0    1
rm33    log    factor    1.0000000E+00    1.0000000E-01    2.0000000E+00    Rch    1.0000000E+00    0    1
rm34    log    factor    1.0000000E+00    1.0000000E-01    2.0000000E+00    Rch    1.0000000E+00    0    1
rm35    log    factor    1.0000000E+00    1.0000000E-01    2.0000000E+00    Rch    1.0000000E+00    0    1
* observation groups
Q_NHD
Q_NWIS
A1
B1
C1
D1
Z
* observation data
50929nhd    29.21    3.765839E-02    q_nhd
52942nhd    30.6845    3.584867E-02    q_nhd
47418nhd    10.4002    1.057672E-01    q_nhd
43422nhd    20.4756    5.372246E-02    q_nhd
37360nhd    33.1342    3.319833E-02    q_nhd
36361nhd    42.7287    2.574385E-02    q_nhd
32864nhd    21.3177    5.160034E-02    q_nhd
30359nhd    177.3456    6.202570E-03    q_nhd
27860nhd    40.0595    2.745919E-02    q_nhd
26845nhd    158.3348    6.947270E-03    q_nhd
41352nhd    82.5466    1.332584E-02    q_nhd
41848nhd    47.7497    2.303675E-02    q_nhd
45336nhd    59.9581    1.834613E-02    q_nhd
44313nhd    201.3049    5.464360E-03    q_nhd
41807nhd    85.0281    1.293688E-02    q_nhd
26835nhd    154.243    7.131630E-03    q_nhd
29832nhd    30.6435    3.589663E-02    q_nhd
28828nhd    17.6299    6.239398E-02    q_nhd
28826nhd    59.6564    1.843897E-02    q_nhd
27304nhd    94.835    1.159906E-02    q_nhd
27798nhd    56.3475    1.952170E-02    q_nhd
25791nhd    66.71    1.648933E-02    q_nhd
24288nhd    46.8624    2.347301E-02    q_nhd
20777nhd    70.3431    1.563760E-02    q_nhd
38281nhd    323.0881    3.404610E-03    q_nhd
40283nhd    41.4125    2.656203E-02    q_nhd
47276nhd    48.8693    2.250897E-02    q_nhd
29261nhd    78.7473    1.396868E-02    q_nhd
31256nhd    32.7996    3.353702E-02    q_nhd
34252nhd    44.1407    2.492028E-02    q_nhd
38243nhd    26.8916    4.090493E-02    q_nhd
38742nhd    19.7498    5.569674E-02    q_nhd
41245nhd    63.152    1.741828E-02    q_nhd
14242nhd    22.5646    4.874892E-02    q_nhd
12241nhd    11.3367    9.703001E-02    q_nhd
10736nhd    6.6163    1.662561E-01    q_nhd
10226nhd    14.4352    7.620261E-02    q_nhd
8221nhd    14.8665    7.399183E-02    q_nhd
8718nhd    63.4308    1.734172E-02    q_nhd
16195nhd    201.573    5.457100E-03    q_nhd
20188nhd    24.5591    4.478991E-02    q_nhd
15763nhd    26.1408    4.207984E-02    q_nhd
17265nhd    16.2746    6.758994E-02    q_nhd
18266nhd    19.095    5.760667E-02    q_nhd
24747nhd    112.0195    9.819700E-03    q_nhd
24743nhd    30.5594    3.599552E-02    q_nhd
30226nhd    117.6853    9.346920E-03    q_nhd
32234nhd    161.5251    6.810100E-03    q_nhd
33230nhd    20.3829    5.396677E-02    q_nhd
38720nhd    183.6377    5.990050E-03    q_nhd
43725nhd    150.3413    7.316650E-03    q_nhd
45224nhd    67.5497    1.628429E-02    q_nhd
49708nhd    45.0657    2.440878E-02    q_nhd
58208nhd    211.5338    5.200140E-03    q_nhd
9692nhd    118.1788    9.307980E-03    q_nhd
9672nhd    21.6579    5.078975E-02    q_nhd
8671nhd    19.1531    5.743199E-02    q_nhd
13678nhd    65.9065    1.669030E-02    q_nhd
13168nhd    88.1203    1.248291E-02    q_nhd
12146nhd    32.0078    3.436664E-02    q_nhd
20166nhd    120.5413    9.125490E-03    q_nhd
21166nhd    51.7082    2.127323E-02    q_nhd
28668nhd    38.667    2.844798E-02    q_nhd
33670nhd    35.5248    3.096423E-02    q_nhd
14139nhd    39.7044    2.770471E-02    q_nhd
27142nhd    33.399    3.293510E-02    q_nhd
31148nhd    48.6053    2.263129E-02    q_nhd
31140nhd    26.3267    4.178273E-02    q_nhd
32139nhd    24.8969    4.418216E-02    q_nhd
33137nhd    31.8526    3.453406E-02    q_nhd
37147nhd    28.7424    3.827098E-02    q_nhd
46131nhd    135.7004    8.106120E-03    q_nhd
51125nhd    31.2846    3.516106E-02    q_nhd
51624nhd    15.5967    7.052771E-02    q_nhd
33114nhd    29.2146    3.765245E-02    q_nhd
34617nhd    27.7224    3.967909E-02    q_nhd
46625nhd    15.2377    7.218937E-02    q_nhd
30095nhd    8.1582    1.348337E-01    q_nhd
31095nhd    9.8566    1.116004E-01    q_nhd
38098nhd    25.9234    4.243272E-02    q_nhd
35084nhd    12.7869    8.602550E-02    q_nhd
43095nhd    19.6571    5.595942E-02    q_nhd
48607nhd    19.3801    5.675923E-02    q_nhd
54103nhd    14.3584    7.661016E-02    q_nhd
60612nhd    12.3294    8.921759E-02    q_nhd
57597nhd    20.23    5.437465E-02    q_nhd
62590nhd    59.955    1.834712E-02    q_nhd
64088nhd    94.2948    1.166550E-02    q_nhd
60066nhd    705.884    1.558370E-03    q_nhd
58563nhd    34.0528    3.230282E-02    q_nhd
61565nhd    100.9381    1.089781E-02    q_nhd
75579nhd    186.4103    5.900950E-03    q_nhd
76104nhd    22.5989    4.867489E-02    q_nhd
76100nhd    30.8229    3.568774E-02    q_nhd
59056nhd    331.4789    3.318480E-03    q_nhd
58054nhd    69.2264    1.588994E-02    q_nhd
61558nhd    9.9862    1.101520E-01    q_nhd
62053nhd    205.8272    5.344240E-03    q_nhd
67061nhd    41.1853    2.670855E-02    q_nhd
68064nhd    91.5677    1.201299E-02    q_nhd
60530nhd    241.181    4.560930E-03    q_nhd
60525nhd    18.5542    5.928582E-02    q_nhd
73530nhd    57.7735    1.903990E-02    q_nhd
70533nhd    98.274    1.119316E-02    q_nhd
73522nhd    108.4653    1.014145E-02    q_nhd
74505nhd    171.383    6.418390E-03    q_nhd
74004nhd    81.928    1.342638E-02    q_nhd
64501nhd    556.2449    1.977580E-03    q_nhd
65501nhd    93.936    1.171005E-02    q_nhd
43339nhd    200.406    5.488890E-03    q_nhd
41307nhd    182.5753    6.024920E-03    q_nhd
28835nhd    199.9945    5.500110E-03    q_nhd
29319nhd    516.1389    2.131250E-03    q_nhd
10737nhd    5.3783    2.045256E-01    q_nhd
16692nhd    113.1821    9.718830E-03    q_nhd
46719nhd    88.4225    1.244023E-02    q_nhd
31625nhd    470.7349    2.336730E-03    q_nhd
32117nhd    248.2953    4.430250E-03    q_nhd
35114nhd    31.68    3.472227E-02    q_nhd
39108nhd    227.7417    4.829990E-03    q_nhd
58065nhd    784.6566    1.401840E-03    q_nhd
66551nhd    158.5081    6.939680E-03    q_nhd
68552nhd    66.9699    1.642531E-02    q_nhd
60031nhd    16.2476    6.770236E-02    q_nhd
71534nhd    161.51    6.810760E-03    q_nhd
78007nhd    57.1854    1.923570E-02    q_nhd
19777nhd    60.4249    1.820445E-02    q_nhd
85515nhd    59.995    1.833491E-02    q_nhd
34627nhd    27.7746    3.960451E-02    q_nhd
q063_86    35.10613    9.684917E-03    q_nwis
q063_87    38.05663    8.934054E-03    q_nwis
q063_88    34.2088    9.938962E-03    q_nwis
q063_89    47.7506    7.120331E-03    q_nwis
q063_90    53.59    6.344468E-03    q_nwis
q063_91    50.6212    6.716554E-03    q_nwis
q063_92    40.8946    8.314057E-03    q_nwis
q063_93    43.0885    7.890737E-03    q_nwis
q063_94    39.82773    8.536764E-03    q_nwis
q063_95    31.73557    1.071353E-02    q_nwis
q063_96    39.672    8.570275E-03    q_nwis
q063_97    41.87295    8.119802E-03    q_nwis
q063_98    49.32527    6.893021E-03    q_nwis
q063_99    40.51235    8.392502E-03    q_nwis
q063_00    41.124    8.267678E-03    q_nwis
q063_01    39.17333    8.679374E-03    q_nwis
q063_02    29.31953    1.159636E-02    q_nwis
q063_03    43.2165    7.867365E-03    q_nwis
q063_04    45.6768    7.443603E-03    q_nwis
q063_05    48.34817    7.032325E-03    q_nwis
q063_06    53.3463    6.373450E-03    q_nwis
q063_07    51.07942    6.656302E-03    q_nwis
q063_08    45.51525    7.470024E-03    q_nwis
q063_09    47.90977    7.096674E-03    q_nwis
q075_86    20.08907    1.692463E-02    q_nwis
q075_87    25.96983    1.309211E-02    q_nwis
q075_88    22.15995    1.534300E-02    q_nwis
q075_89    47.50167    7.157643E-03    q_nwis
q075_90    51.0059    6.665897E-03    q_nwis
q075_91    39.25473    8.661374E-03    q_nwis
q075_92    28.21685    1.204954E-02    q_nwis
q075_93    33.0106    1.029972E-02    q_nwis
q075_94    31.4048    1.082637E-02    q_nwis
q075_95    19.57185    1.737189E-02    q_nwis
q075_96    31.99945    1.062518E-02    q_nwis
q075_97    33.51147    1.014578E-02    q_nwis
q075_98    47.5345    7.152699E-03    q_nwis
q075_99    35.5092    9.574985E-03    q_nwis
q075_00    27.84142    1.221202E-02    q_nwis
q075_01    37.319    9.110640E-03    q_nwis
q075_02    20.8495    1.630735E-02    q_nwis
q075_03    46.69227    7.281719E-03    q_nwis
q075_04    37.1133    9.161137E-03    q_nwis
q075_05    38.14297    8.913831E-03    q_nwis
q075_06    53.6216    6.340728E-03    q_nwis