pcf
* control data
             restart          estimation
       181       181         3         0         9         0
         3         7              single               point         10         0         0          noobsreref
   2.000000E+01  -3.000000E+00   3.000000E-01   1.000000E-02        -7       999          lamforgive        noderforgive
   1.000000E+01   1.000000E+01   1.000000E-03         0         0
   1.000000E-01         1   1.100000E+00               noaui          nosenreuse        noboundscale
         0   1.000000E-02         3         3   1.000000E-02         3   0.000000E+00         1  -1.000000E+00
         0         0         0         0             jcosave          verboserec          jcosaveitn          reisaveitn          parsaveitn        noparsaverun
* singular value decomposition
         1
  10000000    1.000000E-06
1
* parameter groups
 qmuni                   absolute              1.0000000000E-05       0.0  switch                2.0000000000E+00       parabolic              1.0000000000E-05       5.0000000000E-01       smaller              
 hk_pp                   relative              1.0000000000E-02       0.0  switch                2.0000000000E+00       parabolic              1.0000000000E-05       5.0000000000E-01       smaller              
 pargp                   relative              1.0000000000E-02       0.0  always_3              2.0000000000E+00       parabolic              1.0000000000E-05       5.0000000000E-01       smaller              
* parameter data
 alpha_l                fixed                  factor                3.0000000000E+00      1.0000000000E+00      5.0000000000E+00       pargp                 1.0000000000E+00      0.0000000000E+00       1          
 alpha_t                log                    factor                1.0000000000E-01      1.0000000000E-03      1.0000000000E+01       pargp                 1.0000000000E+00      0.0000000000E+00       1          
 hk1000                 log                    factor                4.0000000000E-05      3.0000000000E-06      6.0000000000E-04       hk_pp                 1.0000000000E+00      0.0000000000E+00       1          
 hk1001                 tied                   factor                4.0000000000E-05      3.0000000000E-06      6.0000000000E-04       hk_pp                 1.0000000000E+00      0.0000000000E+00       1          
 hk1002                 tied                   factor                4.0000000000E-05      3.0000000000E-06      6.0000000000E-04       hk_pp                 1.0000000000E+00      0.0000000000E+00       1          
 hk1003                 tied                   factor                4.0000000000E-05      3.0000000000E-06      6.0000000000E-04       hk_pp                 1.0000000000E+00      0.0000000000E+00       1          
 hk1004                 tied                   factor                4.0000000000E-05      3.0000000000E-06      6.0000000000E-04       hk_pp                 1.0000000000E+00      0.0000000000E+00       1          
 hk1005                 tied                   factor                4.0000000000E-05      3.0000000000E-06      6.0000000000E-04       hk_pp                 1.0000000000E+00      0.0000000000E+00       1          
 hk1006                 tied                   factor                4.0000000000E-05      3.0000000000E-06      6.0000000000E-04       hk_pp                 1.0000000000E+00      0.0000000000E+00       1          
 hk1007                 tied                   factor                4.0000000000E-05      3.0000000000E-06      6.0000000000E-04       hk_pp                 1.0000000000E+00      0.0000000000E+00       1          
 hk1008                 tied                   factor                4.0000000000E-05      3.0000000000E-06      6.0000000000E-04       hk_pp                 1.0000000000E+00      0.0000000000E+00       1          
 hk1009                 tied                   factor                4.0000000000E-05      3.0000000000E-06      6.0000000000E-04       hk_pp                 1.0000000000E+00      0.0000000000E+00       1          
 hk1010                 tied                   factor                4.0000000000E-05      3.0000000000E-06      6.0000000000E-04       hk_pp                 1.0000000000E+00      0.0000000000E+00       1          
 hk1011                 tied                   factor                4.0000000000E-05      3.0000000000E-06      6.0000000000E-04       hk_pp                 1.0000000000E+00      0.0000000000E+00       1          
 hk1012                 tied                   factor                4.0000000000E-05      3.0000000000E-06      6.0000000000E-04       hk_pp                 1.0000000000E+00      0.0000000000E+00       1          
 hk1013                 tied                   factor                4.0000000000E-05      3.0000000000E-06      6.0000000000E-04       hk_pp                 1.0000000000E+00      0.0000000000E+00       1          
 hk1014                 tied                   factor                4.0000000000E-05      3.0000000000E-06      6.0000000000E-04       hk_pp                 1.0000000000E+00      0.0000000000E+00       1          
 hk1015                 tied                   factor                4.0000000000E-05      3.0000000000E-06      6.0000000000E-04       hk_pp                 1.0000000000E+00      0.0000000000E+00       1          
 hk1016                 tied                   factor                4.0000000000E-05      3.0000000000E-06      6.0000000000E-04       hk_pp                 1.0000000000E+00      0.0000000000E+00       1          
 hk1017                 tied                   factor                4.0000000000E-05      3.0000000000E-06      6.0000000000E-04       hk_pp                 1.0000000000E+00      0.0000000000E+00       1          
 hk1018                 tied                   factor                4.0000000000E-05      3.0000000000E-06      6.0000000000E-04       hk_pp                 1.0000000000E+00      0.0000000000E+00       1          
 hk1019                 tied                   factor                4.0000000000E-05      3.0000000000E-06      6.0000000000E-04       hk_pp                 1.0000000000E+00      0.0000000000E+00       1          
 hk1020                 tied                   factor                4.0000000000E-05      3.0000000000E-06      6.0000000000E-04       hk_pp                 1.0000000000E+00      0.0000000000E+00       1          
 hk1021                 tied                   factor                4.0000000000E-05      3.0000000000E-06      6.0000000000E-04       hk_pp                 1.0000000000E+00      0.0000000000E+00       1          
 hk1022                 tied                   factor                4.0000000000E-05      3.0000000000E-06      6.0000000000E-04       hk_pp                 1.0000000000E+00      0.0000000000E+00       1          
 hk1023                 tied                   factor                4.0000000000E-05      3.0000000000E-06      6.0000000000E-04       hk_pp                 1.0000000000E+00      0.0000000000E+00       1          
 hk1024                 tied                   factor                4.0000000000E-05      3.0000000000E-06      6.0000000000E-04       hk_pp                 1.0000000000E+00      0.0000000000E+00       1          
 hk1025                 tied                   factor                4.0000000000E-05      3.0000000000E-06      6.0000000000E-04       hk_pp                 1.0000000000E+00      0.0000000000E+00       1          
 hk1026                 tied                   factor                4.0000000000E-05      3.0000000000E-06      6.0000000000E-04       hk_pp                 1.0000000000E+00      0.0000000000E+00       1          
 hk1027                 tied                   factor                4.0000000000E-05      3.0000000000E-06      6.0000000000E-04       hk_pp                 1.0000000000E+00      0.0000000000E+00       1          
 hk1028                 tied                   factor                4.0000000000E-05      3.0000000000E-06      6.0000000000E-04       hk_pp                 1.0000000000E+00      0.0000000000E+00       1          
 hk1029                 log                    factor                4.0000000000E-05      3.0000000000E-06      6.0000000000E-04       hk_pp                 1.0000000000E+00      0.0000000000E+00       1          
 hk1030                 log                    factor                4.0000000000E-05      3.0000000000E-06      6.0000000000E-04       hk_pp                 1.0000000000E+00      0.0000000000E+00       1          
 hk1031                 log                    factor                4.0000000000E-05      3.0000000000E-06      6.0000000000E-04       hk_pp                 1.0000000000E+00      0.0000000000E+00       1          
 hk1032                 tied                   factor                4.0000000000E-05      3.0000000000E-06      6.0000000000E-04       hk_pp                 1.0000000000E+00      0.0000000000E+00       1          
 hk1033                 tied                   factor                4.0000000000E-05      3.0000000000E-06      6.0000000000E-04       hk_pp                 1.0000000000E+00      0.0000000000E+00       1          
 hk1034                 tied                   factor                4.0000000000E-05      3.0000000000E-06      6.0000000000E-04       hk_pp                 1.0000000000E+00      0.0000000000E+00       1          
 hk1035                 tied                   factor                4.0000000000E-05      3.0000000000E-06      6.0000000000E-04       hk_pp                 1.0000000000E+00      0.0000000000E+00       1          
 hk1036                 tied                   factor                4.0000000000E-05      3.0000000000E-06      6.0000000000E-04       hk_pp                 1.0000000000E+00      0.0000000000E+00       1          
 hk1037                 tied                   factor                4.0000000000E-05      3.0000000000E-06      6.0000000000E-04       hk_pp                 1.0000000000E+00      0.0000000000E+00       1          
 hk1038                 tied                   factor                4.0000000000E-05      3.0000000000E-06      6.0000000000E-04       hk_pp                 1.0000000000E+00      0.0000000000E+00       1          
 hk1039                 tied                   factor                4.0000000000E-05      3.0000000000E-06      6.0000000000E-04       hk_pp                 1.0000000000E+00      0.0000000000E+00       1          
 hk1040                 tied                   factor                4.0000000000E-05      3.0000000000E-06      6.0000000000E-04       hk_pp                 1.0000000000E+00      0.0000000000E+00       1          
 hk1041                 log                    factor                4.0000000000E-05      3.0000000000E-06      6.0000000000E-04       hk_pp                 1.0000000000E+00      0.0000000000E+00       1          
 hk1042                 log                    factor                4.0000000000E-05      3.0000000000E-06      6.0000000000E-04       hk_pp                 1.0000000000E+00      0.0000000000E+00       1          
 hk1043                 log                    factor                4.0000000000E-05      3.0000000000E-06      6.0000000000E-04       hk_pp                 1.0000000000E+00      0.0000000000E+00       1          
 hk1044                 log                    factor                4.0000000000E-05      3.0000000000E-06      6.0000000000E-04       hk_pp                 1.0000000000E+00      0.0000000000E+00       1          
 hk1045                 log                    factor                4.0000000000E-05      3.0000000000E-06      6.0000000000E-04       hk_pp                 1.0000000000E+00      0.0000000000E+00       1          
 hk1046                 tied                   factor                4.0000000000E-05      3.0000000000E-06      6.0000000000E-04       hk_pp                 1.0000000000E+00      0.0000000000E+00       1          
 hk1047                 tied                   factor                4.0000000000E-05      3.0000000000E-06      6.0000000000E-04       hk_pp                 1.0000000000E+00      0.0000000000E+00       1          
 hk1048                 tied                   factor                4.0000000000E-05      3.0000000000E-06      6.0000000000E-04       hk_pp                 1.0000000000E+00      0.0000000000E+00       1          
 hk1049                 tied                   factor                4.0000000000E-05      3.0000000000E-06      6.0000000000E-04       hk_pp                 1.0000000000E+00      0.0000000000E+00       1          
 hk1050                 tied                   factor                4.0000000000E-05      3.0000000000E-06      6.0000000000E-04       hk_pp                 1.0000000000E+00      0.0000000000E+00       1          
 hk1051                 tied                   factor                4.0000000000E-05      3.0000000000E-06      6.0000000000E-04       hk_pp                 1.0000000000E+00      0.0000000000E+00       1          
 hk1052                 tied                   factor                4.0000000000E-05      3.0000000000E-06      6.0000000000E-04       hk_pp                 1.0000000000E+00      0.0000000000E+00       1          
 hk1053                 tied                   factor                4.0000000000E-05      3.0000000000E-06      6.0000000000E-04       hk_pp                 1.0000000000E+00      0.0000000000E+00       1          
 hk1054                 tied                   factor                4.0000000000E-05      3.0000000000E-06      6.0000000000E-04       hk_pp                 1.0000000000E+00      0.0000000000E+00       1          
 hk1055                 tied                   factor                4.0000000000E-05      3.0000000000E-06      6.0000000000E-04       hk_pp                 1.0000000000E+00      0.0000000000E+00       1          
 hk1056                 tied                   factor                4.0000000000E-05      3.0000000000E-06      6.0000000000E-04       hk_pp                 1.0000000000E+00      0.0000000000E+00       1          
 hk1057                 tied                   factor                4.0000000000E-05      3.0000000000E-06      6.0000000000E-04       hk_pp                 1.0000000000E+00      0.0000000000E+00       1          
 hk1058                 log                    factor                4.0000000000E-05      3.0000000000E-06      6.0000000000E-04       hk_pp                 1.0000000000E+00      0.0000000000E+00       1          
 hk1059                 log                    factor                4.0000000000E-05      3.0000000000E-06      6.0000000000E-04       hk_pp                 1.0000000000E+00      0.0000000000E+00       1          
 hk1060                 log                    factor                4.0000000000E-05      3.0000000000E-06      6.0000000000E-04       hk_pp                 1.0000000000E+00      0.0000000000E+00       1          
 hk1061                 log                    factor                4.0000000000E-05      3.0000000000E-06      6.0000000000E-04       hk_pp                 1.0000000000E+00      0.0000000000E+00       1          
 hk1062                 log                    factor                4.0000000000E-05      3.0000000000E-06      6.0000000000E-04       hk_pp                 1.0000000000E+00      0.0000000000E+00       1          
 hk1063                 log                    factor                4.0000000000E-05      3.0000000000E-06      6.0000000000E-04       hk_pp                 1.0000000000E+00      0.0000000000E+00       1          
 hk1064                 log                    factor                4.0000000000E-05      3.0000000000E-06      6.0000000000E-04       hk_pp                 1.0000000000E+00      0.0000000000E+00       1          
 hk1065                 tied                   factor                4.0000000000E-05      3.0000000000E-06      6.0000000000E-04       hk_pp                 1.0000000000E+00      0.0000000000E+00       1          
 hk1066                 tied                   factor                4.0000000000E-05      3.0000000000E-06      6.0000000000E-04       hk_pp                 1.0000000000E+00      0.0000000000E+00       1          
 hk1067                 tied                   factor                4.0000000000E-05      3.0000000000E-06      6.0000000000E-04       hk_pp                 1.0000000000E+00      0.0000000000E+00       1          
 hk1068                 tied                   factor                4.0000000000E-05      3.0000000000E-06      6.0000000000E-04       hk_pp                 1.0000000000E+00      0.0000000000E+00       1          
 hk1069                 tied                   factor                4.0000000000E-05      3.0000000000E-06      6.0000000000E-04       hk_pp                 1.0000000000E+00      0.0000000000E+00       1          
 hk1070                 tied                   factor                4.0000000000E-05      3.0000000000E-06      6.0000000000E-04       hk_pp                 1.0000000000E+00      0.0000000000E+00       1          
 hk1071                 tied                   factor                4.0000000000E-05      3.0000000000E-06      6.0000000000E-04       hk_pp                 1.0000000000E+00      0.0000000000E+00       1          
 hk1072                 tied                   factor                4.0000000000E-05      3.0000000000E-06      6.0000000000E-04       hk_pp                 1.0000000000E+00      0.0000000000E+00       1          
 hk1073                 tied                   factor                4.0000000000E-05      3.0000000000E-06      6.0000000000E-04       hk_pp                 1.0000000000E+00      0.0000000000E+00       1          
 hk1074                 tied                   factor                4.0000000000E-05      3.0000000000E-06      6.0000000000E-04       hk_pp                 1.0000000000E+00      0.0000000000E+00       1          
 hk1075                 tied                   factor                4.0000000000E-05      3.0000000000E-06      6.0000000000E-04       hk_pp                 1.0000000000E+00      0.0000000000E+00       1          
 hk1076                 log                    factor                4.0000000000E-05      3.0000000000E-06      6.0000000000E-04       hk_pp                 1.0000000000E+00      0.0000000000E+00       1          
 hk1077                 log                    factor                4.0000000000E-05      3.0000000000E-06      6.0000000000E-04       hk_pp                 1.0000000000E+00      0.0000000000E+00       1          
 hk1078                 log                    factor                4.0000000000E-05      3.0000000000E-06      6.0000000000E-04       hk_pp                 1.0000000000E+00      0.0000000000E+00       1          
 hk1079                 log                    factor                4.0000000000E-05      3.0000000000E-06      6.0000000000E-04       hk_pp                 1.0000000000E+00      0.0000000000E+00       1          
 hk1080                 log                    factor                4.0000000000E-05      3.0000000000E-06      6.0000000000E-04       hk_pp                 1.0000000000E+00      0.0000000000E+00       1          
 hk1081                 log                    factor                4.0000000000E-05      3.0000000000E-06      6.0000000000E-04       hk_pp                 1.0000000000E+00      0.0000000000E+00       1          
 hk1082                 tied                   factor                4.0000000000E-05      3.0000000000E-06      6.0000000000E-04       hk_pp                 1.0000000000E+00      0.0000000000E+00       1          
 hk1083                 tied                   factor                4.0000000000E-05      3.0000000000E-06      6.0000000000E-04       hk_pp                 1.0000000000E+00      0.0000000000E+00       1          
 hk1084                 tied                   factor                4.0000000000E-05      3.0000000000E-06      6.0000000000E-04       hk_pp                 1.0000000000E+00      0.0000000000E+00       1          
 hk1085                 tied                   factor                4.0000000000E-05      3.0000000000E-06      6.0000000000E-04       hk_pp                 1.0000000000E+00      0.0000000000E+00       1          
 hk1086                 tied                   factor                4.0000000000E-05      3.0000000000E-06      6.0000000000E-04       hk_pp                 1.0000000000E+00      0.0000000000E+00       1          
 hk1087                 tied                   factor                4.0000000000E-05      3.0000000000E-06      6.0000000000E-04       hk_pp                 1.0000000000E+00      0.0000000000E+00       1          
 hk1088                 tied                   factor                4.0000000000E-05      3.0000000000E-06      6.0000000000E-04       hk_pp                 1.0000000000E+00      0.0000000000E+00       1          
 hk1089                 tied                   factor                4.0000000000E-05      3.0000000000E-06      6.0000000000E-04       hk_pp                 1.0000000000E+00      0.0000000000E+00       1          
 hk1090                 tied                   factor                4.0000000000E-05      3.0000000000E-06      6.0000000000E-04       hk_pp                 1.0000000000E+00      0.0000000000E+00       1          
 hk1091                 tied                   factor                4.0000000000E-05      3.0000000000E-06      6.0000000000E-04       hk_pp                 1.0000000000E+00      0.0000000000E+00       1          
 hk1092                 tied                   factor                4.0000000000E-05      3.0000000000E-06      6.0000000000E-04       hk_pp                 1.0000000000E+00      0.0000000000E+00       1          
 hk1093                 log                    factor                4.0000000000E-05      3.0000000000E-06      6.0000000000E-04       hk_pp                 1.0000000000E+00      0.0000000000E+00       1          
 hk1094                 log                    factor                4.0000000000E-05      3.0000000000E-06      6.0000000000E-04       hk_pp                 1.0000000000E+00      0.0000000000E+00       1          
 hk1095                 log                    factor                4.0000000000E-05      3.0000000000E-06      6.0000000000E-04       hk_pp                 1.0000000000E+00      0.0000000000E+00       1          
 hk1096                 log                    factor                4.0000000000E-05      3.0000000000E-06      6.0000000000E-04       hk_pp                 1.0000000000E+00      0.0000000000E+00       1          
 hk1097                 log                    factor                4.0000000000E-05      3.0000000000E-06      6.0000000000E-04       hk_pp                 1.0000000000E+00      0.0000000000E+00       1          
 hk1098                 log                    factor                4.0000000000E-05      3.0000000000E-06      6.0000000000E-04       hk_pp                 1.0000000000E+00      0.0000000000E+00       1          
 hk1099                 log                    factor                4.0000000000E-05      3.0000000000E-06      6.0000000000E-04       hk_pp                 1.0000000000E+00      0.0000000000E+00       1          
 hk1100                 log                    factor                4.0000000000E-05      3.0000000000E-06      6.0000000000E-04       hk_pp                 1.0000000000E+00      0.0000000000E+00       1          
 hk1101                 tied                   factor                4.0000000000E-05      3.0000000000E-06      6.0000000000E-04       hk_pp                 1.0000000000E+00      0.0000000000E+00       1          
 hk1102                 tied                   factor                4.0000000000E-05      3.0000000000E-06      6.0000000000E-04       hk_pp                 1.0000000000E+00      0.0000000000E+00       1          
 hk1103                 tied                   factor                4.0000000000E-05      3.0000000000E-06      6.0000000000E-04       hk_pp                 1.0000000000E+00      0.0000000000E+00       1          
 hk1104                 tied                   factor                4.0000000000E-05      3.0000000000E-06      6.0000000000E-04       hk_pp                 1.0000000000E+00      0.0000000000E+00       1          
 hk1105                 tied                   factor                4.0000000000E-05      3.0000000000E-06      6.0000000000E-04       hk_pp                 1.0000000000E+00      0.0000000000E+00       1          
 hk1106                 tied                   factor                4.0000000000E-05      3.0000000000E-06      6.0000000000E-04       hk_pp                 1.0000000000E+00      0.0000000000E+00       1          
 hk1107                 log                    factor                4.0000000000E-05      3.0000000000E-06      6.0000000000E-04       hk_pp                 1.0000000000E+00      0.0000000000E+00       1          
 hk1108                 log                    factor                4.0000000000E-05      3.0000000000E-06      6.0000000000E-04       hk_pp                 1.0000000000E+00      0.0000000000E+00       1          
 hk1109                 log                    factor                4.0000000000E-05      3.0000000000E-06      6.0000000000E-04       hk_pp                 1.0000000000E+00      0.0000000000E+00       1          
 hk1110                 log                    factor                4.0000000000E-05      3.0000000000E-06      6.0000000000E-04       hk_pp                 1.0000000000E+00      0.0000000000E+00       1          
 hk1111                 log                    factor                4.0000000000E-05      3.0000000000E-06      6.0000000000E-04       hk_pp                 1.0000000000E+00      0.0000000000E+00       1          
 hk1112                 log                    factor                4.0000000000E-05      3.0000000000E-06      6.0000000000E-04       hk_pp                 1.0000000000E+00      0.0000000000E+00       1          
 hk1113                 log                    factor                4.0000000000E-05      3.0000000000E-06      6.0000000000E-04       hk_pp                 1.0000000000E+00      0.0000000000E+00       1          
 hk1114                 log                    factor                4.0000000000E-05      3.0000000000E-06      6.0000000000E-04       hk_pp                 1.0000000000E+00      0.0000000000E+00       1          
 hk1115                 tied                   factor                4.0000000000E-05      3.0000000000E-06      6.0000000000E-04       hk_pp                 1.0000000000E+00      0.0000000000E+00       1          
 hk1116                 tied                   factor                4.0000000000E-05      3.0000000000E-06      6.0000000000E-04       hk_pp                 1.0000000000E+00      0.0000000000E+00       1          
 hk1117                 tied                   factor                4.0000000000E-05      3.0000000000E-06      6.0000000000E-04       hk_pp                 1.0000000000E+00      0.0000000000E+00       1          
 hk1118                 tied                   factor                4.0000000000E-05      3.0000000000E-06      6.0000000000E-04       hk_pp                 1.0000000000E+00      0.0000000000E+00       1          
 hk1119                 log                    factor                4.0000000000E-05      3.0000000000E-06      6.0000000000E-04       hk_pp                 1.0000000000E+00      0.0000000000E+00       1          
 hk1120                 log                    factor                4.0000000000E-05      3.0000000000E-06      6.0000000000E-04       hk_pp                 1.0000000000E+00      0.0000000000E+00       1          
 hk1121                 log                    factor                4.0000000000E-05      3.0000000000E-06      6.0000000000E-04       hk_pp                 1.0000000000E+00      0.0000000000E+00       1          
 hk1122                 log                    factor                4.0000000000E-05      3.0000000000E-06      6.0000000000E-04       hk_pp                 1.0000000000E+00      0.0000000000E+00       1          
 hk1123                 log                    factor                4.0000000000E-05      3.0000000000E-06      6.0000000000E-04       hk_pp                 1.0000000000E+00      0.0000000000E+00       1          
 hk1124                 log                    factor                4.0000000000E-05      3.0000000000E-06      6.0000000000E-04       hk_pp                 1.0000000000E+00      0.0000000000E+00       1          
 hk1125                 tied                   factor                4.0000000000E-05      3.0000000000E-06      6.0000000000E-04       hk_pp                 1.0000000000E+00      0.0000000000E+00       1          
 hk1126                 tied                   factor                4.0000000000E-05      3.0000000000E-06      6.0000000000E-04       hk_pp                 1.0000000000E+00      0.0000000000E+00       1          
 hk1127                 tied                   factor                4.0000000000E-05      3.0000000000E-06      6.0000000000E-04       hk_pp                 1.0000000000E+00      0.0000000000E+00       1          
 hk1128                 tied                   factor                4.0000000000E-05      3.0000000000E-06      6.0000000000E-04       hk_pp                 1.0000000000E+00      0.0000000000E+00       1          