pcf
* control data
restart estimation
   000000001562  000000002193  00000000000008  00000000000000  00000000000006
    000000000000004  000000000000001       single          point   1 0 0
          10.0  2.0    0.15   0.001  100     30     lamforgive
          4.0       4.0    0.001        0           1
           0.1
1       0.05  30     30      0.001  30
         1    1    1 parsaverun
* singular value decomposition
1
306   1.0E-6
30
* parameter groups
hk    relative      0.040      0.0   always_2  2.0    parabolic
vk    relative      0.040      0.0   always_2  2.0    parabolic
hfb   relative      0.040      0.0   always_2  2.0    parabolic
ghb   relative      0.040      0.0   always_2  2.0    parabolic
drn   relative      0.040      0.0   always_2  2.0    parabolic
ss    relative      0.040      0.0   always_2  2.0    parabolic
sy    relative      0.040      0.0   always_2  2.0    parabolic
wel   relative      0.040      0.0   always_2  2.0    parabolic
* parameter data
rch_mlt_1     log     factor   1.0000000     5.0000000e-01      2.0000000e+00         ghb     1.00e+00      0.00e+00    1
ghbm_del_r      log       factor    30.00000      3.0000000e+01     1.0000000e+06         ghb     1.00e+00      0.00e+00    1
ghbocean_w      log       factor   3.1243810E-02  1.0000000e-04      1.0000000e+06         ghb     1.00e+00      0.00e+00    1
ghbwest_2       log       factor   4.0910000E-04  1.0000000e-04      1.0000000e+06         ghb     1.00e+00      0.00e+00    1
ghbwest_3       log       factor   3.4576000E-03  1.0000000e-04      1.0000000e+06         ghb     1.00e+00      0.00e+00    1
ghbwest_5       log       factor   1.0000000E-04  1.0000000e-04      1.0000000e+06         ghb     1.00e+00      0.00e+00    1
ghbwest_6       log     factor   2.4590000E-04  1.0000000e-04      1.0000000e+06         ghb     1.00e+00      0.00e+00    1
ghbwest_7       log     factor   1.2191200E-02  1.0000000e-04      1.0000000e+06         ghb     1.00e+00      0.00e+00    1
ghbwest_8       log     factor   9.5700000E-04  1.0000000e-04      1.0000000e+06         ghb     1.00e+00      0.00e+00    1
ghbwest_9       log     factor   1.1376000E-03  1.0000000e-04      1.0000000e+06         ghb     1.00e+00      0.00e+00    1
ghbwest_10      log     factor   5.0699850E-02  1.0000000e-04      1.0000000e+06         ghb     1.00e+00      0.00e+00    1
ghbwest_11      log     factor   1.2229170E-02  1.0000000e-04      1.0000000e+06         ghb     1.00e+00      0.00e+00    1
ghbwest_12      log     factor   4.8028000E-04  1.0000000e-04      1.0000000e+06         ghb     1.00e+00      0.00e+00    1
ghbwest_13      log     factor   1.1444300E-03  1.0000000e-04      1.0000000e+06         ghb     1.00e+00      0.00e+00    1
hbchars_bsp       fixed         factor    1000.000      1.0000000e-10      1.0000000e+05    hfb     1.00e+00      0.00e+00    1
hbchars_uwa       log           factor   3.6619365E-03  1.0000000e-10      1.0000000e+05    hfb     1.00e+00      0.00e+00    1
hbchars_uwb       log           factor   3.6619365E-03  1.0000000e-10      1.0000000e+05    hfb     1.00e+00      0.00e+00    1
hbchars_lw       log           factor   1.6950000E-04  1.0000000e-10      1.0000000e+05    hfb     1.00e+00      0.00e+00    1
hbchars_lba       log          factor   1.6950000E-04  1.0000000e-10      1.0000000e+05    hfb     1.00e+00      0.00e+00    1
hbchars_lbb       log           factor   1.6950000E-04  1.0000000e-10      1.0000000e+05    hfb     1.00e+00      0.00e+00    1
hbchars_lbc       log           factor   8.7629744E-08  1.0000000e-10      1.0000000e+05    hfb     1.00e+00      0.00e+00    1
hbsme_pac       log         factor   1.6433591E-05  1.0000000e-10      1.0000000e+05    hfb     1.00e+00      0.00e+00    1
hbsme_bs        log         factor   1.6433591E-05  1.0000000e-10      1.0000000e+05    hfb     1.00e+00      0.00e+00    1
hbsme_uwa       log         factor   8.6433591E-06  1.0000000e-10      1.0000000e+05    hfb     1.00e+00      0.00e+00    1
hbsme_uwb       log         factor   8.4253256E-06  1.0000000e-10      1.0000000e+05    hfb     1.00e+00      0.00e+00    1
hbsme_lw        log         factor   7.7785900E-06  1.0000000e-10      1.0000000e+05    hfb     1.00e+00      0.00e+00    1
hbsme_lbbc      log         factor   7.7785900E-06  1.0000000e-10      1.0000000e+05    hfb     1.00e+00      0.00e+00    1
hbsm_fix_bs     log         factor   1.6442988E-05  1.0000000e-10      1.0000000e+05    hfb     1.00e+00      0.00e+00    1
hbsm_fix_lw     log         factor   8.2398557E-06  1.0000000e-10      1.0000000e+05    hfb     1.00e+00      0.00e+00    1
hbs_m_mes       log         factor   8.0479860E-04  1.0000000e-10      1.0000000e+05    hfb     1.00e+00      0.00e+00    1
hbs_m_pac       log         factor   6.3052500E-07  1.0000000e-10      1.0000000e+05    hfb     1.00e+00      0.00e+00    1
hbs_m_bsp       log         factor   6.3052500E-07  1.0000000e-10      1.0000000e+05    hfb     1.00e+00      0.00e+00    1
hbs_m_uwa       log         factor   6.3052500E-07  1.0000000e-10      1.0000000e+05    hfb     1.00e+00      0.00e+00    1
hbs_m_lw        log         factor   6.3052500E-07  1.0000000e-10      1.0000000e+05    hfb     1.00e+00      0.00e+00    1
hbs_m_lba       log         factor   6.3052500E-07  1.0000000e-10      1.0000000e+05    hfb     1.00e+00      0.00e+00    1
hbs_m_lbc       log         factor   6.3052500E-07  1.0000000e-10      1.0000000e+05    hfb     1.00e+00      0.00e+00    1
drn_balcr       log         factor   1.0000000E+06  1.0000000e-10      1.0000000e+08    drn     1.00e+00      0.00e+00    1
drn_smfoot      log         factor   1.0000000E+05  1.0000000e-10      1.0000000e+08    drn     1.00e+00      0.00e+00    1
geohk02-01  log  factor    391.3970      1.0000000e-09  1.3000000e+03  hk  1.00e+00  0.00e+00  1
geohk02-02  log  factor    221.0732      1.0000000e-09  1.5000000e+03  hk  1.00e+00  0.00e+00  1
geohk02-03  log  factor    30.15206      1.0000000e-09  1.5000000e+03  hk  1.00e+00  0.00e+00  1
geohk02-04  log  factor    3.143888      1.0000000e-09  1.5000000e+03  hk  1.00e+00  0.00e+00  1
geohk02-05  log  factor    25.83180      1.0000000e-09  1.5000000e+03  hk  1.00e+00  0.00e+00  1
geohk02-06  log  factor    56.60198      1.0000000e-09  6.0000000e+01  hk  1.00e+00  0.00e+00  1
geohk02-07  log  factor    55.63506      7.0000000e-00  1.5000000e+03  hk  1.00e+00  0.00e+00  1
geohk02-08  log  factor    98.27254      1.0000000e-09  1.5000000e+03  hk  1.00e+00  0.00e+00  1
geohk02-09  log  factor    23.31600      1.0000000e-09  1.5000000e+03  hk  1.00e+00  0.00e+00  1
geohk02-10  log  factor    120.9077      1.0000000e-09  1.5000000e+03  hk  1.00e+00  0.00e+00  1
geohk02-11  log  factor    300.9627      1.0000000e-09  1.5000000e+03  hk  1.00e+00  0.00e+00  1
geohk02-12  log  factor   3.4741267      1.0000000e-09  1.5000000e+03  hk  1.00e+00  0.00e+00  1
geohk02-13  log  factor    30.85697      1.0000000e-09  1.5000000e+03  hk  1.00e+00  0.00e+00  1
geohk02-14  log  factor    649.2613      1.0000000e-09  1.5000000e+03  hk  1.00e+00  0.00e+00  1
geohk02-15  log  factor    785.5485      1.0000000e-09  1.5000000e+03  hk  1.00e+00  0.00e+00  1
geohk02-16  log  factor    150.0000      1.0000000e-09  1.5000000e+03  hk  1.00e+00  0.00e+00  1
geohk02-17  log  factor    50.07078      1.0000000e-09  1.5000000e+03  hk  1.00e+00  0.00e+00  1
geohk02-18  log  factor    130.5604      1.0000000e-09  1.5000000e+03  hk  1.00e+00  0.00e+00  1
geohk02-19  log  factor    234.2916      1.0000000e-09  1.5000000e+03  hk  1.00e+00  0.00e+00  1
geohk02-20  log  factor    391.3970      1.0000000e-09  5.0000000e+03  hk  1.00e+00  0.00e+00  1
geohk02-21  log  factor    522.8433      1.0000000e-09  1.5000000e+03  hk  1.00e+00  0.00e+00  1
geohk02-22  log  factor    25.03742      1.0000000e-09  1.5000000e+03  hk  1.00e+00  0.00e+00  1
geohk02-23  log  factor    400.325      1.0000000e-09  1.5000000e+03  hk  1.00e+00  0.00e+00  1
geohk02-24  log  factor    2.788210      1.0000000e-09  1.5000000e+03  hk  1.00e+00  0.00e+00  1
geohk02-25  log  factor   15.4460802      1.0000000e-01  1.5000000e+03  hk  1.00e+00  0.00e+00  1
geohk02-26  log  factor    275.2084      1.0000000e-09  1.5000000e+03  hk  1.00e+00  0.00e+00  1
geohk02-27  log    factor    296.6975      7.0000000e-00  1.5000000e+03  hk  1.00e+00  0.00e+00  1
geohk02-28  log  factor    400.0000      1.0000000e-09  6.0000000e+02  hk  1.00e+00  0.00e+00  1
geohk02-29  log  factor    50.00000      1.0000000e-09  1.5000000e+03  hk  1.00e+00  0.00e+00  1
geohk02-30  log  factor    47.96000      1.0000000e-09  1.5000000e+03  hk  1.00e+00  0.00e+00  1
geohk03-01  log  factor    730.6721      1.0000000e-09  1.5000000e+03  hk  1.00e+00  0.00e+00  1
geohk03-02  log  factor    430.5131      1.0000000e-09  1.5000000e+03  hk  1.00e+00  0.00e+00  1
geohk03-03  log  factor    500.0000      1.0000000e-09  1.5000000e+03  hk  1.00e+00  0.00e+00  1
geohk03-04  log  factor    110.1835      1.0000000e-09  1.5000000e+03  hk  1.00e+00  0.00e+00  1
geohk03-05  log  factor    32.73722      1.0000000e-09  1.5000000e+03  hk  1.00e+00  0.00e+00  1
geohk03-06  log  factor    67.62229      1.0000000e-09  1.5000000e+03  hk  1.00e+00  0.00e+00  1
geohk03-07  log  factor    500.3838      1.0000000e-09  1.5000000e+03  hk  1.00e+00  0.00e+00  1
geohk03-08  log  factor    38.02337      1.0000000e-09  1.5000000e+03  hk  1.00e+00  0.00e+00  1
geohk03-09  log  factor    5.333645      1.0000000e-09  1.5000000e+03  hk  1.00e+00  0.00e+00  1
geohk03-10  log  factor    479.9616      1.0000000e-09  1.5000000e+03  hk  1.00e+00  0.00e+00  1
geohk03-11  log  factor    22.48871      12.0000000e-00  1.5000000e+03  hk  1.00e+00  0.00e+00  1
geohk03-12  log  factor    203.0505      1.0000000e-09  1.5000000e+03  hk  1.00e+00  0.00e+00  1
geohk03-13  log  factor    100.0000      1.0000000e-09  1.5000000e+03  hk  1.00e+00  0.00e+00  1
geohk03-14  log    factor    100.0000      1.0000000e-09  1.0000000e+02  hk  1.00e+00  0.00e+00  1
geohk03-15  log    factor    100.0000      1.0000000e-09  1.0000000e+02  hk  1.00e+00  0.00e+00  1
geohk03-16  log    factor    324.7296      1.0000000e-09  5.0000000e+02  hk  1.00e+00  0.00e+00  1
geohk03-17  log    factor    62.81128      1.0000000e-09  4.0000000e+02  hk  1.00e+00  0.00e+00  1
geohk03-18  log  factor    6.309898      1.0000000e-09  1.5000000e+03  hk  1.00e+00  0.00e+00  1
geohk03-19  log  factor    301.9426      1.0000000e-09  1.5000000e+03  hk  1.00e+00  0.00e+00  1
geohk03-20  log    factor    46.06618      1.0000000e-09  1.5000000e+03  hk  1.00e+00  0.00e+00  1
geohk03-21  log  factor    66.49809      1.0000000e-09  1.5000000e+03  hk  1.00e+00  0.00e+00  1
geohk03-22  log    factor   0.4922492      1.0000000e-09  4.0000000e+02  hk  1.00e+00  0.00e+00  1
geohk03-23  log    factor   0.3895471      1.0000000e-09  4.0000000e+02  hk  1.00e+00  0.00e+00  1
geohk03-24  log    factor    5.428816      1.0000000e-09  4.0000000e+02  hk  1.00e+00  0.00e+00  1
geohk03-25  log    factor   1.35340250   1.0000000e-09  4.0000000e+02  hk  1.00e+00  0.00e+00  1
geohk03-26  log  factor   0.6748996      1.0000000e-09  4.0000000e+02  hk  1.00e+00  0.00e+00  1
geohk03-27  log  factor   30.3857309      1.0000000e-09  4.0000000e+02  hk  1.00e+00  0.00e+00  1
geohk03-28  log  factor    2.555459      1.0000000e-09  4.0000000e+02  hk  1.00e+00  0.00e+00  1
geohk03-29  log    factor    100.0000      1.0000000e-09  1.0000000e+02  hk  1.00e+00  0.00e+00  1
geohk03-30  log    factor   0.9174859      1.0000000e-09  4.0000000e+02  hk  1.00e+00  0.00e+00  1
geohk03-31  log    factor    1.008930      1.0000000e-09  4.0000000e+02  hk  1.00e+00  0.00e+00  1
geohk03-32  log    factor    3.631021      1.0000000e-09  4.0000000e+02  hk  1.00e+00  0.00e+00  1
geohk03-33  log    factor    10.21421      1.0000000e-09  4.0000000e+02  hk  1.00e+00  0.00e+00  1
geohk03-34  log  factor    40.00667      1.0000000e-09  4.0000000e+02  hk  1.00e+00  0.00e+00  1
geohk03-35  log  factor    23.97909      7.0000000e-00  1.5000000e+03  hk  1.00e+00  0.00e+00  1
geohk03-36  log  factor    45.80915      1.0000000e-09  1.5000000e+03  hk  1.00e+00  0.00e+00  1
geohk03-37  log  factor    11.73443      1.0000000e-09  1.5000000e+03  hk  1.00e+00  0.00e+00  1
geohk03-38  log  factor    12.71860      1.0000000e-09  1.5000000e+03  hk  1.00e+00  0.00e+00  1
geohk03-39  log  factor    7.937896      1.0000000e-09  1.5000000e+03  hk  1.00e+00  0.00e+00  1
geohk03-40  log  factor    108.4362      1.0000000e-09  1.5000000e+03  hk  1.00e+00  0.00e+00  1
geohk03-41  log  factor    8.873028      1.0000000e-09  1.5000000e+03  hk  1.00e+00  0.00e+00  1
geohk03-42  log  factor    68.07465      1.0000000e-09  1.5000000e+03  hk  1.00e+00  0.00e+00  1
geohk03-43  log  factor    618.6721      1.0000000e-09  5.0000000e+03  hk  1.00e+00  0.00e+00  1
geohk03-44  log  factor    150.238184      1.0000000e-09  5.0000000e+03  hk  1.00e+00  0.00e+00  1
geohk03-45  log  factor    214.9743      1.0000000e-09  5.0000000e+03  hk  1.00e+00  0.00e+00  1
geohk03-46  log  factor    96.60055      1.0000000e-09  1.5000000e+03  hk  1.00e+00  0.00e+00  1
geohk03-47  log  factor    47.88644      1.0000000e-09  1.5000000e+03  hk  1.00e+00  0.00e+00  1
geohk03-48  log  factor    136.5188      1.0000000e-09  1.5000000e+03  hk  1.00e+00  0.00e+00  1
geohk03-49  log  factor    1.155612      1.0000000e-09  1.5000000e+03  hk  1.00e+00  0.00e+00  1
geohk03-50  log    factor    3.864410      1.0000000e-09  1.0000000e+02  hk  1.00e+00  0.00e+00  1
geohk03-51  log    factor    4.290403      1.0000000e-09  4.0000000e+02  hk  1.00e+00  0.00e+00  1
geohk03-52  log    factor    2.0000        1.0000000e-09  4.0000000e+02  hk  1.00e+00  0.00e+00  1
geohk03-53  log    factor    100.0000      1.0000000e-09  1.0000000e+02  hk  1.00e+00  0.00e+00  1
geohk03-54  log    factor    100.0000      1.0000000e-09  1.0000000e+02  hk  1.00e+00  0.00e+00  1
geohk03-55  log    factor   5.3895471      1.0000000e-09  4.0000000e+02  hk  1.00e+00  0.00e+00  1
geohk03-56  log  factor    50.0505      1.0000000e-09  1.5000000e+03  hk  1.00e+00  0.00e+00  1
geohk03-57  log  factor  100.0000        1.0000000e-09  4.0000000e+02  hk  1.00e+00  0.00e+00  1
geohk04-01  log  factor    155.0494      1.0000000e-09  4.0000000e+02  hk  1.00e+00  0.00e+00  1
geohk04-02  log  factor    100.0000      1.0000000e-09  1.0000000e+02  hk  1.00e+00  0.00e+00  1
geohk04-03  log  factor    97.58435      1.0000000e-09  4.0000000e+02  hk  1.00e+00  0.00e+00  1
geohk04-04  log  factor    10.11938      1.0000000e-09  4.0000000e+02  hk  1.00e+00  0.00e+00  1
geohk04-05  log  factor    80.19033      1.0000000e-09  1.0000000e+02  hk  1.00e+00  0.00e+00  1
geohk04-06  log  factor   4.7255674      1.0000000e-09  4.0000000e+02  hk  1.00e+00  0.00e+00  1
geohk04-07  log  factor    5.817634      1.0000000e-09  4.0000000e+02  hk  1.00e+00  0.00e+00  1
geohk04-08  log  factor    6.246116      1.0000000e-09  4.0000000e+02  hk  1.00e+00  0.00e+00  1
geohk04-09  log  factor    169.1517      1.0000000e-09  4.0000000e+02  hk  1.00e+00  0.00e+00  1
geohk04-10  log  factor    51.71527      1.0000000e-09  1.0000000e+02  hk  1.00e+00  0.00e+00  1
geohk04-11  log  factor    9.084795      1.0000000e-09  4.0000000e+02  hk  1.00e+00  0.00e+00  1
geohk04-12  log  factor    100.0000      1.0000000e-09  1.0000000e+02  hk  1.00e+00  0.00e+00  1
geohk05-01  log  factor    400.0000      1.0000000e-09  4.0000000e+02  hk  1.00e+00  0.00e+00  1
geohk05-02  log  factor    94.83110      1.0000000e-09  4.0000000e+02  hk  1.00e+00  0.00e+00  1
geohk05-03  log  factor    200.0000      1.0000000e-09  2.0000000e+02  hk  1.00e+00  0.00e+00  1
geohk05-04  log  factor    20.82910      1.0000000e-09  4.0000000e+02  hk  1.00e+00  0.00e+00  1
geohk05-05  log  factor    1.000000      1.0000000e+00  4.0000000e+02  hk  1.00e+00  0.00e+00  1
geohk05-06  log  factor    1.962228      1.0000000e-09  4.0000000e+02  hk  1.00e+00  0.00e+00  1
geohk05-07  log  factor    43.39288      1.0000000e-09  4.0000000e+02  hk  1.00e+00  0.00e+00  1
geohk05-08  log  factor    45.04113      1.0000000e-09  1.0000000e+02  hk  1.00e+00  0.00e+00  1
geohk05-09  log    factor    5.718274      1.0000000e-09  4.0000000e+02  hk  1.00e+00  0.00e+00  1
geohk05-10  log    factor    15.00714      1.0000000e-09  1.5000000e+02  hk  1.00e+00  0.00e+00  1
geohk05-11  log    factor    400.0000      1.0000000e-09  4.0000000e+02  hk  1.00e+00  0.00e+00  1
geohk05-12  log    factor    100.0000      1.0000000e-09  1.0000000e+02  hk  1.00e+00  0.00e+00  1
geohk05-13  log    factor    44.60773      1.0000000e-09  4.0000000e+02  hk  1.00e+00  0.00e+00  1
geohk05-14  log    factor   0.7245554      1.0000000e-09  1.0000000e+02  hk  1.00e+00  0.00e+00  1
geohk05-15  log  factor    99.08622      1.0000000e-09  4.0000000e+02  hk  1.00e+00  0.00e+00  1
geohk05-16  log    factor    400.0000      1.0000000e-09  4.0000000e+02  hk  1.00e+00  0.00e+00  1
geohk05-17  log  factor    395.7800      1.0000000e-09  4.0000000e+02  hk  1.00e+00  0.00e+00  1
geohk05-18  log    factor    21.75819      1.0000000e-09  1.0000000e+02  hk  1.00e+00  0.00e+00  1
geohk05-19  log    factor    28.72614      1.0000000e-09  4.0000000e+02  hk  1.00e+00  0.00e+00  1
geohk05-20  log    factor    3.167052      1.0000000e-09  4.0000000e+02  hk  1.00e+00  0.00e+00  1
geohk05-21  log  factor    300.0945      1.0000000e-09  4.0000000e+02  hk  1.00e+00  0.00e+00  1
geohk05-22  log  factor   1.00000      1.0000000e-09  4.0000000e+02  hk  1.00e+00  0.00e+00  1
geohk05-23  log  factor    67.99506      1.0000000e-09  4.0000000e+02  hk  1.00e+00  0.00e+00  1
geohk05-24  log  factor    13.82015      1.0000000e-09  4.0000000e+02  hk  1.00e+00  0.00e+00  1
geohk05-25  log  factor    11.24302      1.0000000e-09  4.0000000e+02  hk  1.00e+00  0.00e+00  1
geohk05-26  log  factor    200.0000      1.0000000e-09  2.0000000e+02  hk  1.00e+00  0.00e+00  1
geohk05-27  log    factor    3.262115      1.0000000e-09  4.0000000e+02  hk  1.00e+00  0.00e+00  1
geohk05-28  log    factor    1.504383      1.0000000e-09  4.0000000e+02  hk  1.00e+00  0.00e+00  1
geohk05-29  log  factor    20.40057      1.0000000e-09  4.0000000e+02  hk  1.00e+00  0.00e+00  1
geohk05-30  log    factor    2.882123      1.0000000e-09  1.0000000e+02  hk  1.00e+00  0.00e+00  1
geohk05-31  log  factor    0.2           1.0000000e-09  4.0000000e+02  hk  1.00e+00  0.00e+00  1
geohk05-32  log  factor    400.0000      1.0000000e-09  4.0000000e+02  hk  1.00e+00  0.00e+00  1
geohk05-33  log  factor    14.45885      1.0000000e-09  4.0000000e+02  hk  1.00e+00  0.00e+00  1
geohk05-34  log  factor    61.96380      1.0000000e-09  4.0000000e+02  hk  1.00e+00  0.00e+00  1
geohk05-35  log    factor   0.4130000      1.0000000e-09  1.0000000e+02  hk  1.00e+00  0.00e+00  1
geohk05-36  log    factor    100.0000      1.0000000e-09  1.0000000e+02  hk  1.00e+00  0.00e+00  1
geohk05-37  log  factor    7.902052      1.0000000e-09  4.0000000e+02  hk  1.00e+00  0.00e+00  1
geohk05-38  log  factor    5.472313      1.0000000e-09  4.0000000e+02  hk  1.00e+00  0.00e+00  1
geohk05-39  log  factor    20.55648      1.0000000e-09  4.0000000e+02  hk  1.00e+00  0.00e+00  1
geohk05-40  log  factor    76.01282      1.0000000e-09  4.0000000e+02  hk  1.00e+00  0.00e+00  1
geohk05-41  log    factor    20.33641      1.0000000e-09  4.0000000e+02  hk  1.00e+00  0.00e+00  1
geohk05-42  log    factor    100.0000      1.0000000e-09  1.0000000e+02  hk  1.00e+00  0.00e+00  1
geohk05-43  log  factor    99.08622      1.0000000e-09  4.0000000e+02  hk  1.00e+00  0.00e+00  1
geohk05-44  log  factor    6.0           1.0000000e-09  4.0000000e+02  hk  1.00e+00  0.00e+00  1
geohk05-45  log  factor    20.0           1.0000000e-09  4.0000000e+02  hk  1.00e+00  0.00e+00  1
geohk05-46  log    factor    50.0      1.0000000e-09  4.0000000e+02  hk  1.00e+00  0.00e+00  1
geohk06-01  log  factor    4.000000      4.0000000e-00  4.0000000e+02  hk  1.00e+00  0.00e+00  1
geohk06-02  log  factor    8.815172      1.0000000e-09  4.0000000e+02  hk  1.00e+00  0.00e+00  1
geohk06-03  log  factor    400.0000      1.0000000e-09  4.0000000e+02  hk  1.00e+00  0.00e+00  1
geohk06-04  log  factor    12.04690      1.0000000e-09  2.5000000e+02  hk  1.00e+00  0.00e+00  1
geohk06-05  log  factor    94.57294      1.0000000e-09  4.0000000e+02  hk  1.00e+00  0.00e+00  1
geohk06-06  log  factor    76.19178      1.0000000e-09  4.0000000e+02  hk  1.00e+00  0.00e+00  1
geohk06-07  log    factor    44.76920      1.0000000e-09  5.0000000e+01  hk  1.00e+00  0.00e+00  1
geohk06-08  log    factor    5.319754      1.0000000e-09  4.0000000e+02  hk  1.00e+00  0.00e+00  1
geohk06-09  log    factor    7.358874      5.0000000e-00  4.0000000e+02  hk  1.00e+00  0.00e+00  1
geohk06-10  log    factor    100.0000      1.0000000e-09  1.0000000e+02  hk  1.00e+00  0.00e+00  1
geohk06-11  log    factor    22.03541      1.0000000e-09  4.0000000e+02  hk  1.00e+00  0.00e+00  1
geohk06-12  log    factor    400.0000      1.0000000e-09  4.0000000e+02  hk  1.00e+00  0.00e+00  1
geohk06-13  log    factor    51.77870      1.0000000e-09  1.0000000e+02  hk  1.00e+00  0.00e+00  1
geohk06-14  log  factor    2.712110      1.0000000e-09  4.0000000e+02  hk  1.00e+00  0.00e+00  1
geohk06-15  log    factor    121.5328      1.0000000e-09  4.0000000e+02  hk  1.00e+00  0.00e+00  1
geohk06-16  log    factor    21.51511      1.0000000e-09  1.0000000e+02  hk  1.00e+00  0.00e+00  1
geohk06-17  log    factor    100.0000      1.0000000e-09  1.0000000e+02  hk  1.00e+00  0.00e+00  1
geohk06-18  log    factor    2.252486      1.0000000e-09  1.0000000e+02  hk  1.00e+00  0.00e+00  1
geohk06-19  log    factor   0.4462864      1.0000000e-09  4.0000000e+02  hk  1.00e+00  0.00e+00  1
geohk06-20  log    factor    0.2      1.000000e-09  1.0000000e+02  hk  1.00e+00  0.00e+00  1
geohk06-21  log    factor    42.83642      5.0000000e-00  1.0000000e+02  hk  1.00e+00  0.00e+00  1
geohk06-22  log    factor    6.720360      1.0000000e-09  4.0000000e+02  hk  1.00e+00  0.00e+00  1
geohk06-23  log    factor    88.20635      1.0000000e-09  1.0000000e+02  hk  1.00e+00  0.00e+00  1
geohk06-24  log  factor    79.89423      1.0000000e-09  4.0000000e+02  hk  1.00e+00  0.00e+00  1
geohk06-25  log  factor    34.91412      1.0000000e-09  4.0000000e+02  hk  1.00e+00  0.00e+00  1
geohk06-26  log  factor    61.11267      1.0000000e-09  4.0000000e+02  hk  1.00e+00  0.00e+00  1
geohk06-27  log  factor    60.00000      1.0000000e-09   6.0000000e+01  hk  1.00e+00  0.00e+00  1
geohk06-28  log  factor    50.48045      1.0000000e-09  2.5000000e+02  hk  1.00e+00  0.00e+00  1
geohk06-29  log  factor    12.17500      1.0000000e-09  1.0000000e+02  hk  1.00e+00  0.00e+00  1
geohk06-30  log  factor    10.00000      1.0000000e-09  2.5000000e+02  hk  1.00e+00  0.00e+00  1
geohk06-31  log  factor    3.625128      2.0000000e-00  2.5000000e+02  hk  1.00e+00  0.00e+00  1
geohk06-32  log    factor   0.3779859      1.0000000e-09  2.5000000e+02  hk  1.00e+00  0.00e+00  1
geohk06-33  log  factor    112.8829      1.0000000e-09  1.0000000e+03  hk  1.00e+00  0.00e+00  1
geohk06-34  log  factor    50.71211      1.0000000e-09  4.0000000e+02  hk  1.00e+00  0.00e+00  1
geohk06-35  log  factor    30.38112      1.0000000e-09  4.0000000e+02  hk  1.00e+00  0.00e+00  1
geohk07-01  log  factor    180.1389      1.0000000e-09  4.0000000e+02  hk  1.00e+00  0.00e+00  1
geohk07-02  log  factor    57.064978      1.0000000e-09  4.0000000e+02  hk  1.00e+00  0.00e+00  1
geohk07-03  log  factor    244.5822      1.0000000e-09  4.0000000e+02  hk  1.00e+00  0.00e+00  1
geohk07-04  log  factor    165.7664      1.0000000e-09  4.0000000e+02  hk  1.00e+00  0.00e+00  1
geohk07-05  log    factor   0.6613927      1.0000000e-09  1.0000000e+02  hk  1.00e+00  0.00e+00  1
geohk07-06  log    factor    69.38800      1.0000000e-09  1.0000000e+02  hk  1.00e+00  0.00e+00  1
geohk07-07  log    factor   0.4618685      1.0000000e-09  1.0000000e+02  hk  1.00e+00  0.00e+00  1
geohk07-08  log    factor   0.6277397      1.0000000e-09  4.0000000e+02  hk  1.00e+00  0.00e+00  1
geohk07-09  log  factor    344.8668      1.0000000e-09  4.0000000e+02  hk  1.00e+00  0.00e+00  1
geohk07-10  log    factor   0.7220542      1.0000000e-09  4.0000000e+02  hk  1.00e+00  0.00e+00  1
geohk07-11  log    factor    7.659669      1.0000000e-09  4.0000000e+02  hk  1.00e+00  0.00e+00  1
geohk07-12  log  factor    40.00000      1.0000000e-09  4.0000000e+01  hk  1.00e+00  0.00e+00  1
geohk07-13  log    factor    55.72778      1.0000000e-09  4.0000000e+02  hk  1.00e+00  0.00e+00  1
geohk07-14  log    factor    29.71756      1.0000000e-09  4.0000000e+02  hk  1.00e+00  0.00e+00  1
geohk07-15  log    factor    34.89766      1.0000000e-09  1.0000000e+02  hk  1.00e+00  0.00e+00  1
geohk07-16  log    factor   0.3777788      1.0000000e-09  4.0000000e+02  hk  1.00e+00  0.00e+00  1
geohk07-17  log    factor    12.92085      1.0000000e-09  1.0000000e+02  hk  1.00e+00  0.00e+00  1
geohk07-18  log  factor    61.53967      1.0000000e-09  4.0000000e+02  hk  1.00e+00  0.00e+00  1
geohk07-19  log    factor    52.20599      1.0000000e-09  4.0000000e+02  hk  1.00e+00  0.00e+00  1
geohk07-20  log    factor    6.742899      1.0000000e-09  4.0000000e+02  hk  1.00e+00  0.00e+00  1
geohk07-21  log  factor    5.455902      1.0000000e-09  1.0000000e+02  hk  1.00e+00  0.00e+00  1
geohk07-22  log  factor    15.81491      1.0000000e-09  2.0000000e+02  hk  1.00e+00  0.00e+00  1
geohk07-23  log  factor    10.00000      1.0000000e-09  4.0000000e+02  hk  1.00e+00  0.00e+00  1
geohk07-24  log  factor    12.00214      1.0000000e-09  4.0000000e+02  hk  1.00e+00  0.00e+00  1
geohk07-25  log  factor    47.94782      1.0000000e-09  4.0000000e+02  hk  1.00e+00  0.00e+00  1
geohk07-26  log  factor    54.00119      1.0000000e-09  4.0000000e+02  hk  1.00e+00  0.00e+00  1
geohk07-27  log    factor    9.174803      1.0000000e-09  4.0000000e+02  hk  1.00e+00  0.00e+00  1
geohk07-28  log  factor    30.5822      1.0000000e-09  4.0000000e+02  hk  1.00e+00  0.00e+00  1
geohk07-29  log  factor    80.5822      1.0000000e-09  4.0000000e+02  hk  1.00e+00  0.00e+00  1
geohk07-30  log  factor    15.81491      1.0000000e-09  2.0000000e+02  hk  1.00e+00  0.00e+00  1
geohk07-31  log  factor    10.00000      1.0000000e-09  4.0000000e+02  hk  1.00e+00  0.00e+00  1
geohk07-32  log  factor    100.00000      1.0000000e-09  4.0000000e+02  hk  1.00e+00  0.00e+00  1
geohk07-33  log  factor    50.000000      1.0000000e-09  4.0000000e+02  hk  1.00e+00  0.00e+00  1
geohk08-01  log  factor    133.3291      1.0000000e-09  4.0000000e+02  hk  1.00e+00  0.00e+00  1
geohk08-02  log  factor    64.20379      1.0000000e+01  4.0000000e+02  hk  1.00e+00  0.00e+00  1
geohk08-03  log  factor    11.86406      1.0000000e-09  4.0000000e+02  hk  1.00e+00  0.00e+00  1
geohk08-04  log  factor    13.08861      1.0000000e-09  4.0000000e+02  hk  1.00e+00  0.00e+00  1
geohk08-05  log  factor    4.599901      1.0000000e-09  4.0000000e+02  hk  1.00e+00  0.00e+00  1
geohk08-06  log  factor    15.00860      1.0000000e-09  4.0000000e+01  hk  1.00e+00  0.00e+00  1
geohk08-07  log  factor    39.91539      1.0000000e-09  4.0000000e+02  hk  1.00e+00  0.00e+00  1
geohk08-08  log  factor    28.47894      1.0000000e-09  1.0000000e+02  hk  1.00e+00  0.00e+00  1
geohk08-09  log  factor    50.00000      1.0000000e-09  5.0000000e+01  hk  1.00e+00  0.00e+00  1
geohk08-10  log  factor    100.0000      1.0000000e-09  1.0000000e+02  hk  1.00e+00  0.00e+00  1
geohk08-11  log    factor    22.05904      1.0000000e-09  4.0000000e+02  hk  1.00e+00  0.00e+00  1
geohk08-12  log    factor    50.00000      1.0000000e-09  1.0000000e+02  hk  1.00e+00  0.00e+00  1
geohk08-13  log    factor   0.3021142      1.0000000e-09  4.0000000e+02  hk  1.00e+00  0.00e+00  1
geohk08-14  log  factor    20.65820      1.0000000e-09  4.0000000e+02  hk  1.00e+00  0.00e+00  1
geohk08-15  log    factor    4.856029      1.0000000e-09  1.0000000e+02  hk  1.00e+00  0.00e+00  1
geohk08-16  log  factor    44.82929      1.0000000e-09  4.0000000e+02  hk  1.00e+00  0.00e+00  1
geohk08-17  log    factor   0.5344745      1.0000000e-09  4.0000000e+02  hk  1.00e+00  0.00e+00  1
geohk08-18  log    factor    200.0000      1.0000000e-09  2.0000000e+02  hk  1.00e+00  0.00e+00  1
geohk08-19  log    factor    84.01798      1.0000000e-09  4.0000000e+02  hk  1.00e+00  0.00e+00  1
geohk08-20  log    factor    100.0000      1.0000000e-09  1.0000000e+02  hk  1.00e+00  0.00e+00  1
geohk08-21  log  factor    117.5247      1.0000000e-09  4.0000000e+02  hk  1.00e+00  0.00e+00  1
geohk08-22  log    factor    1.410802      1.0000000e-09  4.0000000e+02  hk  1.00e+00  0.00e+00  1
geohk08-23  log  factor    13.84325      1.0000000e-09  1.0000000e+02  hk  1.00e+00  0.00e+00  1
geohk08-24  log    factor    100.0000      1.0000000e-09  1.0000000e+02  hk  1.00e+00  0.00e+00  1
geohk08-25  log  factor    1.699416      1.0000000e-09  4.0000000e+02  hk  1.00e+00  0.00e+00  1
geohk08-26  log  factor    146.9950      1.0000000e-09  4.0000000e+02  hk  1.00e+00  0.00e+00  1
geohk08-27  log    factor    200.0000      1.0000000e-09  2.0000000e+02  hk  1.00e+00  0.00e+00  1
geohk08-28  log  factor    3.427383      1.0000000e-09  4.0000000e+02  hk  1.00e+00  0.00e+00  1
geohk08-29  log  factor    11.77176      1.0000000e-09  4.0000000e+02  hk  1.00e+00  0.00e+00  1
geohk08-30  log  factor    100.0000      1.0000000e-09  1.0000000e+02  hk  1.00e+00  0.00e+00  1
geohk08-31  log  factor    10.00000      1.0000000e+01  4.0000000e+02  hk  1.00e+00  0.00e+00  1
geohk08-32  log  factor    10.00000      1.0000000e+01  4.0000000e+02  hk  1.00e+00  0.00e+00  1