pcf
* control data
restart regularisation
596  4599  4  5890  23
6  3  double  point  1  0  0
2.000000e+001  -3.000000e+000  3.000000e-001  1.000000e-002  10 999 lamforgive
0.1  1.000000e+001  1.000000e-003
1.000000e-001 noaui
0  1.000000e-003  3  3  1.000000e-002  3
0 0 0 REISAVEITN PARSAVEITN
* singular value decomposition
 1
 534  5.000000e-007
 1
* parameter groups
Kp     relative   1.000000e-002  0.000000e+000  switch  2.000000e+000  parabolic
Kz     relative   1.000000e-002  0.000000e+000  switch  2.000000e+000  parabolic
Rech relative 1.00E-02 0.00E+00 switch 2.00E+00 parabolic
SFR_cond relative 1.00E-02 0 switch 2 parabolic
* parameter data
kpkpx_tc2  log  factor    3.389367      0.43  13.54  kp  1  0  1
kpkpx_tc3  log  factor    13.54000      0.43  13.54  kp  1  0  1
kpkpx_tc4  log  factor    1.908745      0.43  13.54  kp  1  0  1
kpkpx_tc7  log  factor    3.380238      0.43  13.54  kp  1  0  1
kpkpx_tc8  log  factor    2.691044      0.43  13.54  kp  1  0  1
kpkpx_tc9  log  factor    2.254968      0.43  13.54  kp  1  0  1
kpkpx_tc10  log  factor    3.625690      0.43  13.54  kp  1  0  1
kpkpx_tc11  log  factor    2.198863      0.43  13.54  kp  1  0  1
kpkpx_tc12  log  factor    2.732487      0.43  13.54  kp  1  0  1
kpkpx_tc13  log  factor    4.915190      0.43  13.54  kp  1  0  1
kpkpx_tc14  log  factor    2.364995      0.43  13.54  kp  1  0  1
kpkpx_tc15  log  factor    2.274251      0.43  13.54  kp  1  0  1
kpkpx_tc16  log  factor    1.572978      0.43  13.54  kp  1  0  1
kpkpx_tc17  log  factor    2.031069      0.43  13.54  kp  1  0  1
kpkpx_tc18  log  factor    3.035677      0.43  13.54  kp  1  0  1
kpkpx_tc19  log  factor    6.634927      0.43  13.54  kp  1  0  1
kpkpx_tc20  log  factor    2.862374      0.43  13.54  kp  1  0  1
kpkpx_tc21  log  factor    9.870300      0.43  13.54  kp  1  0  1
kpkpx_tc22  log  factor    2.299799      0.43  13.54  kp  1  0  1
kpkpx_tc23  log  factor    1.396230      0.43  13.54  kp  1  0  1
kpkpx_tc24  log  factor    2.606953      0.43  13.54  kp  1  0  1
kpkpx_tc25  log  factor    13.54000      0.43  13.54  kp  1  0  1
kpkpx_tc27  log  factor   0.4300000      0.43  13.54  kp  1  0  1
kpkpx_tc28  log  factor    2.664293      0.43  13.54  kp  1  0  1
kpkpx_tc29  log  factor   0.4300000      0.43  13.54  kp  1  0  1
kpkpx_tc30  log  factor    1.365104      0.43  13.54  kp  1  0  1
kpkpx_tc31  log  factor    3.683278      0.43  13.54  kp  1  0  1
kpkpx_tc32  log  factor    2.966526      0.43  13.54  kp  1  0  1
kpkpx_tc33  log  factor    2.737807      0.43  13.54  kp  1  0  1
kpkpx_tc34  log  factor    1.940630      0.43  13.54  kp  1  0  1
kpkpx_tc35  log  factor    1.287951      0.43  13.54  kp  1  0  1
kpkpx_tc36  log  factor    1.865406      0.43  13.54  kp  1  0  1
kpkpx_tc37  log  factor    4.757435      0.43  13.54  kp  1  0  1
kpkpx_tc38  log  factor    4.514221      0.43  13.54  kp  1  0  1
kpkpx_tc39  log  factor    2.786024      0.43  13.54  kp  1  0  1
kpkpx_tc40  log  factor    2.947958      0.43  13.54  kp  1  0  1
kpkpx_tc41  log  factor    2.601354      0.43  13.54  kp  1  0  1
kpkpx_tc42  log  factor    2.677192      0.43  13.54  kp  1  0  1
kpkpx_tc43  log  factor    2.388343      0.43  13.54  kp  1  0  1
kpkpx_tc44  log  factor    2.129947      0.43  13.54  kp  1  0  1
kpkpx_tc45  log  factor    3.524939      0.43  13.54  kp  1  0  1
kpkpx_tc46  log  factor    3.530151      0.43  13.54  kp  1  0  1
kpkpx_tc47  log  factor    3.577205      0.43  13.54  kp  1  0  1
kpkpx_tc48  log  factor    3.060397      0.43  13.54  kp  1  0  1
kpkpx_tc49  log  factor    2.414026      0.43  13.54  kp  1  0  1
kpkpx_tc50  log  factor    2.482450      0.43  13.54  kp  1  0  1
kpkpx_tc52  log  factor    2.148590      0.43  13.54  kp  1  0  1
kpkpx_tc53  log  factor    6.544670      0.43  13.54  kp  1  0  1
kpkpx_tc54  log  factor    2.697550      0.43  13.54  kp  1  0  1
kpkpx_tc55  log  factor    3.506192      0.43  13.54  kp  1  0  1
kpkpx_tc56  log  factor    2.355802      0.43  13.54  kp  1  0  1
kpkpx_tc57  log  factor    2.338267      0.43  13.54  kp  1  0  1
kpkpx_tc58  log  factor    2.263891      0.43  13.54  kp  1  0  1
kpkpx_tc59  log  factor    2.027334      0.43  13.54  kp  1  0  1
kpkpx_ec1  log  factor    7.002971      0.28  98.33  kp  1  0  1
kpkpx_ec2  log  factor    6.213874      0.28  98.33  kp  1  0  1
kpkpx_ec4  log  factor    6.888526      0.28  98.33  kp  1  0  1
kpkpx_ec5  log  factor    7.209753      0.28  98.33  kp  1  0  1
kpkpx_ec7  log  factor    5.754615      0.28  98.33  kp  1  0  1
kpkpx_ec8  log  factor    6.862037      0.28  98.33  kp  1  0  1
kpkpx_ec9  log  factor    7.155919      0.28  98.33  kp  1  0  1
kpkpx_ec10  log  factor    7.148510      0.28  98.33  kp  1  0  1
kpkpx_ec11  log  factor    6.635459      0.28  98.33  kp  1  0  1
kpkpx_ec13  log  factor    6.771017      0.28  98.33  kp  1  0  1
kpkpx_ec14  log  factor    6.902046      0.28  98.33  kp  1  0  1
kpkpx_ec15  log  factor    6.785645      0.28  98.33  kp  1  0  1
kpkpx_ec16  log  factor    6.760339      0.28  98.33  kp  1  0  1
kpkpx_ec17  log  factor    7.141117      0.28  98.33  kp  1  0  1
kpkpx_ec18  log  factor    7.053483      0.28  98.33  kp  1  0  1
kpkpx_ww1  log  factor    5.606040      0.28  98.33  kp  1  0  1
kpkpx_ww2  log  factor    5.045013      0.28  98.33  kp  1  0  1
kpkpx_ww3  log  factor    5.186733      0.28  98.33  kp  1  0  1
kpkpx_ww4  log  factor    4.549401      0.28  98.33  kp  1  0  1
kpkpx_ww5  log  factor    4.002186      0.28  98.33  kp  1  0  1
kpkpx_ww6  log  factor    4.602206      0.28  98.33  kp  1  0  1
kpkpx_ww7  log  factor    4.433128      0.28  98.33  kp  1  0  1
kpkpx_ww8  log  factor    4.438294      0.28  98.33  kp  1  0  1
kpkpx_ww9  log  factor    6.413028      0.28  98.33  kp  1  0  1
kpkpx_ww10  log  factor    9.070477      0.28  98.33  kp  1  0  1
kpkpx_ww11  log  factor    5.582120      0.28  98.33  kp  1  0  1
kpkpx_ww12  log  factor    4.380624      0.28  98.33  kp  1  0  1
kpkpx_ww13  log  factor    7.905469      0.28  98.33  kp  1  0  1
kpkpx_ww14  log  factor    5.851864      0.28  98.33  kp  1  0  1
kpkpx_ww15  log  factor    5.187643      0.28  98.33  kp  1  0  1
kpkpx_ww16  log  factor    3.767435      0.28  98.33  kp  1  0  1
kpkpx_ww17  log  factor    5.325447      0.28  98.33  kp  1  0  1
kpkpx_ww18  log  factor    5.928456      0.28  98.33  kp  1  0  1
kpkpx_ww19  log  factor    9.496391      0.28  98.33  kp  1  0  1
kpkpx_ww20  log  factor    5.215428      0.28  98.33  kp  1  0  1
kpkpx_ww21  log  factor    5.424414      0.28  98.33  kp  1  0  1
kpkpx_ww22  log  factor    4.351401      0.28  98.33  kp  1  0  1
kpkpx_ww23  log  factor    7.021757      0.28  98.33  kp  1  0  1
kpkpx_ww24  log  factor    8.197741      0.28  98.33  kp  1  0  1
kpkpx_ww25  log  factor    6.209605      0.28  98.33  kp  1  0  1
kpkpx_ww26  log  factor    5.605468      0.28  98.33  kp  1  0  1
kpkpx_ww27  log  factor    7.054212      0.28  98.33  kp  1  0  1
kpkpx_ww28  log  factor    5.072289      0.28  98.33  kp  1  0  1
kpkpx_ww29  log  factor    7.139097      0.28  98.33  kp  1  0  1
kpkpx_ww30  log  factor    4.609189      0.28  98.33  kp  1  0  1
kpkpx_ww31  log  factor    16.34262      0.28  98.33  kp  1  0  1
kpkpx_ww32  log  factor    5.999922      0.28  98.33  kp  1  0  1
kpkpx_ww33  log  factor    4.540075      0.28  98.33  kp  1  0  1
kpkpx_ww34  log  factor    5.121617      0.28  98.33  kp  1  0  1
kpkpx_ww35  log  factor    5.982650      0.28  98.33  kp  1  0  1
kpkpx_ww36  log  factor    4.678017      0.28  98.33  kp  1  0  1
kpkpx_ww37  log  factor    4.231493      0.28  98.33  kp  1  0  1
kpkpx_ww38  log  factor    4.425470      0.28  98.33  kp  1  0  1
kpkpx_ww39  log  factor    6.414335      0.28  98.33  kp  1  0  1
kpkpx_ww40  log  factor    9.622335      0.28  98.33  kp  1  0  1
kpkpx_ww41  log  factor    3.607949      0.28  98.33  kp  1  0  1
kpkpx_ww42  log  factor    4.244434      0.28  98.33  kp  1  0  1
kpkpx_ww43  log  factor    4.890148      0.28  98.33  kp  1  0  1
kpkpx_ww44  log  factor    6.360568      0.28  98.33  kp  1  0  1
kpkpx_ww45  log  factor    5.665611      0.28  98.33  kp  1  0  1
kpkpx_ww46  log  factor    9.610295      0.28  98.33  kp  1  0  1
kpkpx_ww47  log  factor    11.06068      0.28  98.33  kp  1  0  1
kpkpx_ww48  log  factor    7.915778      0.28  98.33  kp  1  0  1
kpkpx_ww49  log  factor    5.795999      0.28  98.33  kp  1  0  1
kpkpx_ww50  log  factor    3.798893      0.28  98.33  kp  1  0  1
kpkpx_ww51  log  factor    3.601992      0.28  98.33  kp  1  0  1
kpkpx_ww52  log  factor    7.608606      0.28  98.33  kp  1  0  1
kpkpx_ww53  log  factor    3.181254      0.28  98.33  kp  1  0  1
kpkpx_ww54  log  factor    7.620777      0.28  98.33  kp  1  0  1
kpkpx_ww55  log  factor    7.746977      0.28  98.33  kp  1  0  1
kpkpx_ww56  log  factor    5.217299      0.28  98.33  kp  1  0  1
kpkpx_ww57  log  factor    98.33000      0.28  98.33  kp  1  0  1
kpkpx_ww58  log  factor    98.33000      0.28  98.33  kp  1  0  1
kpkpx_ww59  log  factor    12.88218      0.28  98.33  kp  1  0  1
kpkpx_ww60  log  factor    9.797737      0.28  98.33  kp  1  0  1
kpkpx_ww61  log  factor    1.035604      0.28  98.33  kp  1  0  1
kpkpx_ww62  log  factor    2.521712      0.28  98.33  kp  1  0  1
kpkpx_ww63  log  factor    8.453965      0.28  98.33  kp  1  0  1
kpkpx_ww64  log  factor    11.09562      0.28  98.33  kp  1  0  1
kpkpx_ww65  log  factor    5.990272      0.28  98.33  kp  1  0  1
kpkpx_ww66  log  factor    4.223697      0.28  98.33  kp  1  0  1
kpkpx_ww67  log  factor    5.678408      0.28  98.33  kp  1  0  1
kpkpx_ww68  log  factor    86.02826      0.28  98.33  kp  1  0  1
kpkpx_ww69  log  factor    98.33000      0.28  98.33  kp  1  0  1
kpkpx_ww70  log  factor    3.588174      0.28  98.33  kp  1  0  1
kpkpx_ww71  log  factor    5.247334      0.28  98.33  kp  1  0  1
kpkpx_ww72  log  factor    4.017203      0.28  98.33  kp  1  0  1
kpkpx_ww73  log  factor    5.283032      0.28  98.33  kp  1  0  1
kpkpx_ww74  log  factor    8.835895      0.28  98.33  kp  1  0  1
kpkpx_ww75  log  factor    5.399115      0.28  98.33  kp  1  0  1
kpkpx_ww76  log  factor    6.141883      0.28  98.33  kp  1  0  1
kpkpx_ww77  log  factor    5.288107      0.28  98.33  kp  1  0  1
kpkpx_ww78  log  factor    35.09755      0.28  98.33  kp  1  0  1
kpkpx_ww79  log  factor    7.276580      0.28  98.33  kp  1  0  1
kpkpx_ww80  log  factor    5.149932      0.28  98.33  kp  1  0  1
kpkpx_ww81  log  factor    4.778978      0.28  98.33  kp  1  0  1
kpkpx_ww82  log  factor    4.336098      0.28  98.33  kp  1  0  1
kpkpx_ww83  log  factor    8.827056      0.28  98.33  kp  1  0  1
kpkpx_ww84  log  factor    8.009533      0.28  98.33  kp  1  0  1
kpkpx_ww85  log  factor    4.906732      0.28  98.33  kp  1  0  1
kpkpx_ww86  log  factor    4.165483      0.28  98.33  kp  1  0  1
kpkpx_ww87  log  factor    4.029862      0.28  98.33  kp  1  0  1
kpkpx_ww88  log  factor    6.301405      0.28  98.33  kp  1  0  1
kpkpx_ww89  log  factor    4.122504      0.28  98.33  kp  1  0  1
kpkpx_ww90  log  factor    4.046033      0.28  98.33  kp  1  0  1
kpkpx_ww91  log  factor    4.968998      0.28  98.33  kp  1  0  1
kpkpx_ww92  log  factor    4.775765      0.28  98.33  kp  1  0  1
kpkpx_ww93  log  factor    6.382065      0.28  98.33  kp  1  0  1
kpkpx_ww94  log  factor    2.848490      0.28  98.33  kp  1  0  1
kpkpx_ww95  log  factor    4.737871      0.28  98.33  kp  1  0  1
kpkpx_ww96  log  factor    3.968756      0.28  98.33  kp  1  0  1
kpkpx_ww97  log  factor    3.843869      0.28  98.33  kp  1  0  1
kpkpx_ww98  log  factor    5.130998      0.28  98.33  kp  1  0  1
kpkpx_ww99  log  factor    4.217605      0.28  98.33  kp  1  0  1
kpkpx_ms1  log  factor    11.44433      0.32  73.06  kp  1  0  1
kpkpx_ms2  log  factor    5.525082      0.32  73.06  kp  1  0  1
kpkpx_ms3  log  factor    7.420416      0.32  73.06  kp  1  0  1
kpkpx_ms4  log  factor    5.627517      0.32  73.06  kp  1  0  1
kpkpx_ms5  log  factor    5.991181      0.32  73.06  kp  1  0  1
kpkpx_ms6  log  factor    2.528190      0.32  73.06  kp  1  0  1
kpkpx_ms7  log  factor    24.69734      0.32  73.06  kp  1  0  1
kpkpx_ms8  log  factor    7.995978      0.32  73.06  kp  1  0  1
kpkpx_ms9  log  factor    13.47914      0.32  73.06  kp  1  0  1
kpkpx_ms10  log  factor    73.06000      0.32  73.06  kp  1  0  1
kpkpx_ms11  log  factor    4.408537      0.32  73.06  kp  1  0  1
kpkpx_ms12  log  factor    44.58976      0.32  73.06  kp  1  0  1
kpkpx_ms13  log  factor    5.098014      0.32  73.06  kp  1  0  1
kpkpx_ms14  log  factor    5.480207      0.32  73.06  kp  1  0  1
kpkpx_ms15  log  factor    8.567272      0.32  73.06  kp  1  0  1
kpkpx_ms16  log  factor    7.052159      0.32  73.06  kp  1  0  1
kpkpx_ms17  log  factor    4.407295      0.32  73.06  kp  1  0  1
kpkpx_ms18  log  factor    73.06000      0.32  73.06  kp  1  0  1
kpkpx_ms19  log  factor    73.06000      0.32  73.06  kp  1  0  1
kpkpx_ms20  log  factor    8.254210      0.32  73.06  kp  1  0  1
kpkpx_ms21  log  factor    7.402557      0.32  73.06  kp  1  0  1
kpkpx_ms22  log  factor    4.515936      0.32  73.06  kp  1  0  1
kpkpx_ms23  log  factor    73.06000      0.32  73.06  kp  1  0  1
kpkpx_ms24  log  factor    6.730896      0.32  73.06  kp  1  0  1
kpkpx_ms25  log  factor    8.629911      0.32  73.06  kp  1  0  1
kpkpx_ms26  log  factor    16.54391      0.32  73.06  kp  1  0  1
kpkpx_ms27  log  factor    17.73119      0.32  73.06  kp  1  0  1
kpkpx_ms28  log  factor    3.467201      0.32  73.06  kp  1  0  1
kpkpx_ms29  log  factor    37.39012      0.32  73.06  kp  1  0  1
kpkpx_ms30  log  factor    73.06000      0.32  73.06  kp  1  0  1
kpkpx_ms31  log  factor    3.982239      0.32  73.06  kp  1  0  1
kpkpx_ms32  log  factor    12.34897      0.32  73.06  kp  1  0  1
kpkpx_ms33  log  factor    6.430538      0.32  73.06  kp  1  0  1
kpkpx_ms34  log  factor    6.571307      0.32  73.06  kp  1  0  1
kpkpx_ms35  log  factor    5.940465      0.32  73.06  kp  1  0  1
kpkpx_ms36  log  factor    5.046038      0.32  73.06  kp  1  0  1
kpkpx_ms37  log  factor    1.832159      0.32  73.06  kp  1  0  1
kpkpx_ms38  log  factor    3.136424      0.32  73.06  kp  1  0  1
kpkpx_ms39  log  factor    23.98087      0.32  73.06  kp  1  0  1
kpkpx_ms40  log  factor    34.65333      0.32  73.06  kp  1  0  1
kpkpx_ms41  log  factor    2.627804      0.32  73.06  kp  1  0  1
kpkpx_ms42  log  factor    2.993517      0.32  73.06  kp  1  0  1
kpkpx_ms43  log  factor    10.19970      0.32  73.06  kp  1  0  1
kpkpx_ms44  log  factor    13.90638      0.32  73.06  kp  1  0  1
kpkpx_ms45  log  factor    6.413777      0.32  73.06  kp  1  0  1
kpkpx_ms46  log  factor    14.14901      0.32  73.06  kp  1  0  1
kpkpx_ms47  log  factor    73.06000      0.32  73.06  kp  1  0  1
kpkpx_ms48  log  factor   0.6812653      0.32  73.06  kp  1  0  1
kpkpx_ms49  log  factor   0.3200000      0.32  73.06  kp  1  0  1
kpkpx_ms50  log  factor    15.47850      0.32  73.06  kp  1  0  1
kpkpx_ms51  log  factor    73.06000      0.32  73.06  kp  1  0  1
kpkpx_ms52  log  factor    73.06000      0.32  73.06  kp  1  0  1
kpkpx_ms53  log  factor    3.791526      0.32  73.06  kp  1  0  1
kpkpx_ms54  log  factor    6.696417      0.32  73.06  kp  1  0  1
kpkpx_ms55  log  factor    60.87343      0.32  73.06  kp  1  0  1
kpkpx_ms56  log  factor    6.239056      0.32  73.06  kp  1  0  1
kpkpx_ms57  log  factor    16.65132      0.32  73.06  kp  1  0  1
kpkpx_ms58  log  factor    16.37840      0.32  73.06  kp  1  0  1
kpkpx_ms59  log  factor    10.75059      0.32  73.06  kp  1  0  1
kpkpx_ms60  log  factor    16.01761      0.32  73.06  kp  1  0  1
kpkpx_ms61  log  factor    73.06000      0.32  73.06  kp  1  0  1
kpkpx_ms62  log  factor    6.176115      0.32  73.06  kp  1  0  1
kpkpx_ms63  log  factor    7.430717      0.32  73.06  kp  1  0  1
kpkpx_ms64  log  factor    73.06000      0.32  73.06  kp  1  0  1
kpkpx_ms65  log  factor    6.795736      0.32  73.06  kp  1  0  1
kpkpx_ms66  log  factor    6.923796      0.32  73.06  kp  1  0  1
kpkpx_ms67  log  factor    6.972955      0.32  73.06  kp  1  0  1
kpkpx_ms68  log  factor    5.705019      0.32  73.06  kp  1  0  1
kpkpx_ms69  log  factor    11.51503      0.32  73.06  kp  1  0  1
kpkpx_ms70  log  factor    7.797625      0.32  73.06  kp  1  0  1
kpkpx_ms71  log  factor    13.49101      0.32  73.06  kp  1  0  1
kpkpx_ms72  log  factor    8.194248      0.32  73.06  kp  1  0  1
kpkpx_ms73  log  factor    73.06000      0.32  73.06  kp  1  0  1
kpkpx_ms74  log  factor    73.06000      0.32  73.06  kp  1  0  1
kpkpx_ms75  log  factor    9.579909      0.32  73.06  kp  1  0  1
kpkpx_ms76  log  factor    6.261080      0.32  73.06  kp  1  0  1
kpkpx_ms77  log  factor    6.111621      0.32  73.06  kp  1  0  1
kpkpx_ms78  log  factor    4.840128      0.32  73.06  kp  1  0  1
kpkpx_ms79  log  factor    5.159654      0.32  73.06  kp  1  0  1
kpkpx_ms80  log  factor    9.244066      0.32  73.06  kp  1  0  1
kpkpx_ms81  log  factor    5.124913      0.32  73.06  kp  1  0  1
kpkpx_ms82  log  factor    3.718556      0.32  73.06  kp  1  0  1
kpkpx_ms83  log  factor    26.45326      0.32  73.06  kp  1  0  1
kpkpx_ms84  log  factor    40.14765      0.32  73.06  kp  1  0  1
kpkpx_ms85  log  factor    7.757209      0.32  73.06  kp  1  0  1
kpkpx_ms86  log  factor    12.53235      0.32  73.06  kp  1  0  1
kpkpx_ms87  log  factor    7.239948      0.32  73.06  kp  1  0  1
kpkpx_ms88  log  factor    6.842245      0.32  73.06  kp  1  0  1
kpkpx_ms89  log  factor    6.507846      0.32  73.06  kp  1  0  1
kpkpx_ms90  log  factor    6.802986      0.32  73.06  kp  1  0  1
kpkpx_ms91  log  factor    5.310127      0.32  73.06  kp  1  0  1
kpkpx_ms92  log  factor    11.63829      0.32  73.06  kp  1  0  1
kpkpx_ms93  log  factor    8.443570      0.32  73.06  kp  1  0  1
kpkpx_ms94  log  factor    1.890260      0.32  73.06  kp  1  0  1
kpkpx_ms95  log  factor    6.105217      0.32  73.06  kp  1  0  1
kpkpx_ms96  log  factor    2.667527      0.32  73.06  kp  1  0  1
kpkpx_ms97  log  factor    3.679502      0.32  73.06  kp  1  0  1
kpkpx_ms98  log  factor    6.244250      0.32  73.06  kp  1  0  1
kpkpx_ms99  log  factor    5.643309      0.32  73.06  kp  1  0  1
kzkpz_tc2  log  factor   5.2557604E-02  1.00e-10  1.00e+00  kz  1  0  1
kzkpz_tc3  log  factor   6.4500909E-02  1.00e-10  1.00e+00  kz  1  0  1
kzkpz_tc4  log  factor   7.8189351E-02  1.00e-10  1.00e+00  kz  1  0  1
kzkpz_tc7  log  factor   5.7913402E-02  1.00e-10  1.00e+00  kz  1  0  1
kzkpz_tc8  log  factor   4.2688805E-02  1.00e-10  1.00e+00  kz  1  0  1
kzkpz_tc9  log  factor   5.6511677E-02  1.00e-10  1.00e+00  kz  1  0  1
kzkpz_tc10  log  factor   4.5404563E-02  1.00e-10  1.00e+00  kz  1  0  1
kzkpz_tc11  log  factor   5.2574138E-02  1.00e-10  1.00e+00  kz  1  0  1
kzkpz_tc12  log  factor   4.6083555E-02  1.00e-10  1.00e+00  kz  1  0  1
kzkpz_tc13  log  factor   5.2042535E-02  1.00e-10  1.00e+00  kz  1  0  1
kzkpz_tc14  log  factor   5.0958746E-02  1.00e-10  1.00e+00  kz  1  0  1
kzkpz_tc15  log  factor   6.5330107E-02  1.00e-10  1.00e+00  kz  1  0  1
kzkpz_tc16  log  factor   4.5582724E-02  1.00e-10  1.00e+00  kz  1  0  1
kzkpz_tc17  log  factor   5.5088736E-02  1.00e-10  1.00e+00  kz  1  0  1
kzkpz_tc18  log  factor   4.7016765E-02  1.00e-10  1.00e+00  kz  1  0  1
kzkpz_tc19  log  factor   5.8594588E-02  1.00e-10  1.00e+00  kz  1  0  1
kzkpz_tc20  log  factor   5.0219338E-02  1.00e-10  1.00e+00  kz  1  0  1
kzkpz_tc21  log  factor   0.1297587      1.00e-10  1.00e+00  kz  1  0  1
kzkpz_tc22  log  factor   4.9243434E-02  1.00e-10  1.00e+00  kz  1  0  1
kzkpz_tc23  log  factor   3.9379424E-02  1.00e-10  1.00e+00  kz  1  0  1
kzkpz_tc24  log  factor   4.2291433E-02  1.00e-10  1.00e+00  kz  1  0  1
kzkpz_tc25  log  factor   7.3994038E-02  1.00e-10  1.00e+00  kz  1  0  1
kzkpz_tc27  log  factor   3.7552777E-02  1.00e-10  1.00e+00  kz  1  0  1
kzkpz_tc28  log  factor   8.3606956E-02  1.00e-10  1.00e+00  kz  1  0  1
kzkpz_tc29  log  factor   3.3319610E-02  1.00e-10  1.00e+00  kz  1  0  1
kzkpz_tc30  log  factor   3.7193358E-02  1.00e-10  1.00e+00  kz  1  0  1
kzkpz_tc31  log  factor   5.6060261E-02  1.00e-10  1.00e+00  kz  1  0  1
kzkpz_tc32  log  factor   5.8904212E-02  1.00e-10  1.00e+00  kz  1  0  1
kzkpz_tc33  log  factor   5.0096283E-02  1.00e-10  1.00e+00  kz  1  0  1
kzkpz_tc34  log  factor   4.7048041E-02  1.00e-10  1.00e+00  kz  1  0  1
kzkpz_tc35  log  factor   4.8860566E-03  1.00e-10  1.00e+00  kz  1  0  1
kzkpz_tc36  log  factor   3.8722018E-02  1.00e-10  1.00e+00  kz  1  0  1
kzkpz_tc37  log  factor   4.9244259E-02  1.00e-10  1.00e+00  kz  1  0  1
kzkpz_tc38  log  factor   6.0120951E-02  1.00e-10  1.00e+00  kz  1  0  1
kzkpz_tc39  log  factor   3.4441407E-02  1.00e-10  1.00e+00  kz  1  0  1
kzkpz_tc40  log  factor   5.0528009E-02  1.00e-10  1.00e+00  kz  1  0  1
kzkpz_tc41  log  factor   4.7159611E-02  1.00e-10  1.00e+00  kz  1  0  1
kzkpz_tc42  log  factor   6.2753967E-02  1.00e-10  1.00e+00  kz  1  0  1
kzkpz_tc43  log  factor   5.3182888E-02  1.00e-10  1.00e+00  kz  1  0  1
kzkpz_tc44  log  factor   4.7159258E-02  1.00e-10  1.00e+00  kz  1  0  1
kzkpz_tc45  log  factor   4.6843417E-02  1.00e-10  1.00e+00  kz  1  0  1
kzkpz_tc46  log  factor   6.6640813E-02  1.00e-10  1.00e+00  kz  1  0  1
kzkpz_tc47  log  factor   7.5962667E-02  1.00e-10  1.00e+00  kz  1  0  1
kzkpz_tc48  log  factor   5.6948682E-02  1.00e-10  1.00e+00  kz  1  0  1
kzkpz_tc49  log  factor   5.1351278E-02  1.00e-10  1.00e+00  kz  1  0  1
kzkpz_tc50  log  factor   4.8692474E-02  1.00e-10  1.00e+00  kz  1  0  1
kzkpz_tc52  log  factor   6.5526098E-02  1.00e-10  1.00e+00  kz  1  0  1
kzkpz_tc53  log  factor   5.0335719E-02  1.00e-10  1.00e+00  kz  1  0  1
kzkpz_tc54  log  factor   4.4677173E-02  1.00e-10  1.00e+00  kz  1  0  1
kzkpz_tc55  log  factor   6.5252203E-02  1.00e-10  1.00e+00  kz  1  0  1
kzkpz_tc56  log  factor   5.0518399E-02  1.00e-10  1.00e+00  kz  1  0  1
kzkpz_tc57  log  factor   4.4633515E-02  1.00e-10  1.00e+00  kz  1  0  1
kzkpz_tc58  log  factor   4.6104828E-02  1.00e-10  1.00e+00  kz  1  0  1
kzkpz_tc59  log  factor   4.7268022E-02  1.00e-10  1.00e+00  kz  1  0  1
kzkpz_ec1  log  factor   9.7252479E-02  1.00e-10  1.00e+00  kz  1  0  1
kzkpz_ec2  log  factor   9.4050719E-02  1.00e-10  1.00e+00  kz  1  0  1
kzkpz_ec4  log  factor   9.1995484E-02  1.00e-10  1.00e+00  kz  1  0  1
kzkpz_ec5  log  factor   9.5794902E-02  1.00e-10  1.00e+00  kz  1  0  1
kzkpz_ec7  log  factor   9.3852803E-02  1.00e-10  1.00e+00  kz  1  0  1
kzkpz_ec8  log  factor   9.8054352E-02  1.00e-10  1.00e+00  kz  1  0  1
kzkpz_ec9  log  factor   9.7715123E-02  1.00e-10  1.00e+00  kz  1  0  1
kzkpz_ec10  log  factor   9.3946970E-02  1.00e-10  1.00e+00  kz  1  0  1
kzkpz_ec11  log  factor   9.1228489E-02  1.00e-10  1.00e+00  kz  1  0  1
kzkpz_ec13  log  factor   9.5553340E-02  1.00e-10  1.00e+00  kz  1  0  1
kzkpz_ec14  log  factor   9.9862316E-02  1.00e-10  1.00e+00  kz  1  0  1
kzkpz_ec15  log  factor   9.8684174E-02  1.00e-10  1.00e+00  kz  1  0  1
kzkpz_ec16  log  factor   9.5586013E-02  1.00e-10  1.00e+00  kz  1  0  1
kzkpz_ec17  log  factor   0.1003828      1.00e-10  1.00e+00  kz  1  0  1
kzkpz_ec18  log  factor   9.4933575E-02  1.00e-10  1.00e+00  kz  1  0  1
kzkpz_ww1  log  factor   8.6674646E-02  1.00e-10  1.00e+00  kz  1  0  1
kzkpz_ww2  log  factor   9.5386169E-02  1.00e-10  1.00e+00  kz  1  0  1
kzkpz_ww3  log  factor   8.1212200E-02  1.00e-10  1.00e+00  kz  1  0  1
kzkpz_ww4  log  factor   9.5027360E-02  1.00e-10  1.00e+00  kz  1  0  1
kzkpz_ww5  log  factor   0.1431772      1.00e-10  1.00e+00  kz  1  0  1
kzkpz_ww6  log  factor   9.1721280E-02  1.00e-10  1.00e+00  kz  1  0  1
kzkpz_ww7  log  factor   0.1199412      1.00e-10  1.00e+00  kz  1  0  1
kzkpz_ww8  log  factor   0.1090627      1.00e-10  1.00e+00  kz  1  0  1
kzkpz_ww9  log  factor   0.1050557      1.00e-10  1.00e+00  kz  1  0  1
kzkpz_ww10  log  factor   9.6690369E-02  1.00e-10  1.00e+00  kz  1  0  1
kzkpz_ww11  log  factor   8.7975857E-02  1.00e-10  1.00e+00  kz  1  0  1
kzkpz_ww12  log  factor   6.0134192E-02  1.00e-10  1.00e+00  kz  1  0  1
kzkpz_ww13  log  factor   9.7687504E-02  1.00e-10  1.00e+00  kz  1  0  1
kzkpz_ww14  log  factor   0.1089777      1.00e-10  1.00e+00  kz  1  0  1
kzkpz_ww15  log  factor   6.9343292E-02  1.00e-10  1.00e+00  kz  1  0  1
kzkpz_ww16  log  factor   8.7657080E-02  1.00e-10  1.00e+00  kz  1  0  1
kzkpz_ww17  log  factor   0.1050167      1.00e-10  1.00e+00  kz  1  0  1
kzkpz_ww18  log  factor   0.1466256      1.00e-10  1.00e+00  kz  1  0  1
kzkpz_ww19  log  factor   0.1086447      1.00e-10  1.00e+00  kz  1  0  1
kzkpz_ww20  log  factor   9.6977261E-02  1.00e-10  1.00e+00  kz  1  0  1
kzkpz_ww21  log  factor   0.1123773      1.00e-10  1.00e+00  kz  1  0  1
kzkpz_ww22  log  factor   8.9761440E-02  1.00e-10  1.00e+00  kz  1  0  1
kzkpz_ww23  log  factor   9.3120089E-02  1.00e-10  1.00e+00  kz  1  0  1
kzkpz_ww24  log  factor   9.5650323E-02  1.00e-10  1.00e+00  kz  1  0  1
kzkpz_ww25  log  factor   9.0671146E-02  1.00e-10  1.00e+00  kz  1  0  1
kzkpz_ww26  log  factor   0.1150549      1.00e-10  1.00e+00  kz  1  0  1
kzkpz_ww27  log  factor   0.1067154      1.00e-10  1.00e+00  kz  1  0  1
kzkpz_ww28  log  factor   8.7926660E-02  1.00e-10  1.00e+00  kz  1  0  1
kzkpz_ww29  log  factor   0.2021683      1.00e-10  1.00e+00  kz  1  0  1
kzkpz_ww30  log  factor   9.4065204E-02  1.00e-10  1.00e+00  kz  1  0  1
kzkpz_ww31  log  factor   0.1185028      1.00e-10  1.00e+00  kz  1  0  1
kzkpz_ww32  log  factor   9.7951979E-02  1.00e-10  1.00e+00  kz  1  0  1
kzkpz_ww33  log  factor   0.1088710      1.00e-10  1.00e+00  kz  1  0  1
kzkpz_ww34  log  factor   1.8425441E-02  1.00e-10  1.00e+00  kz  1  0  1
kzkpz_ww35  log  factor   0.1072906      1.00e-10  1.00e+00  kz  1  0  1
kzkpz_ww36  log  factor   0.1159869      1.00e-10  1.00e+00  kz  1  0  1
kzkpz_ww37  log  factor   0.1026070      1.00e-10  1.00e+00  kz  1  0  1
kzkpz_ww38  log  factor   9.6725997E-02  1.00e-10  1.00e+00  kz  1  0  1
kzkpz_ww39  log  factor   0.1413833      1.00e-10  1.00e+00  kz  1  0  1
kzkpz_ww40  log  factor   0.1416610      1.00e-10  1.00e+00  kz  1  0  1
kzkpz_ww41  log  factor   9.3035399E-02  1.00e-10  1.00e+00  kz  1  0  1
kzkpz_ww42  log  factor   8.6199445E-02  1.00e-10  1.00e+00  kz  1  0  1
kzkpz_ww43  log  factor   8.6630452E-02  1.00e-10  1.00e+00  kz  1  0  1
kzkpz_ww44  log  factor   0.1182741      1.00e-10  1.00e+00  kz  1  0  1
kzkpz_ww45  log  factor   0.1685950      1.00e-10  1.00e+00  kz  1  0  1
kzkpz_ww46  log  factor   9.7072181E-02  1.00e-10  1.00e+00  kz  1  0  1
kzkpz_ww47  log  factor   0.1005446      1.00e-10  1.00e+00  kz  1  0  1
kzkpz_ww48  log  factor   0.1045376      1.00e-10  1.00e+00  kz  1  0  1
kzkpz_ww49  log  factor   0.1021909      1.00e-10  1.00e+00  kz  1  0  1
kzkpz_ww50  log  factor   4.1885712E-02  1.00e-10  1.00e+00  kz  1  0  1
kzkpz_ww51  log  factor   3.1619209E-04  1.00e-10  1.00e+00  kz  1  0  1
kzkpz_ww52  log  factor   9.0822127E-02  1.00e-10  1.00e+00  kz  1  0  1
kzkpz_ww53  log  factor   0.1253651      1.00e-10  1.00e+00  kz  1  0  1
kzkpz_ww54  log  factor   0.1190229      1.00e-10  1.00e+00  kz  1  0  1
kzkpz_ww55  log  factor   9.6020091E-02  1.00e-10  1.00e+00  kz  1  0  1
kzkpz_ww56  log  factor   0.1428614      1.00e-10  1.00e+00  kz  1  0  1
kzkpz_ww57  log  factor   7.5376572E-02  1.00e-10  1.00e+00  kz  1  0  1
kzkpz_ww58  log  factor   0.1049425      1.00e-10  1.00e+00  kz  1  0  1
kzkpz_ww59  log  factor   0.1106561      1.00e-10  1.00e+00  kz  1  0  1
kzkpz_ww60  log  factor   0.1189117      1.00e-10  1.00e+00  kz  1  0  1
kzkpz_ww61  log  factor   0.1535701      1.00e-10  1.00e+00  kz  1  0  1
kzkpz_ww62  log  factor   7.8652976E-02  1.00e-10  1.00e+00  kz  1  0  1
kzkpz_ww63  log  factor   8.2615795E-02  1.00e-10  1.00e+00  kz  1  0  1
kzkpz_ww64  log  factor   0.1109001      1.00e-10  1.00e+00  kz  1  0  1
kzkpz_ww65  log  factor   9.8880353E-02  1.00e-10  1.00e+00  kz  1  0  1
kzkpz_ww66  log  factor   0.1097554      1.00e-10  1.00e+00  kz  1  0  1
kzkpz_ww67  log  factor   9.9528933E-02  1.00e-10  1.00e+00  kz  1  0  1
kzkpz_ww68  log  factor   0.1089130      1.00e-10  1.00e+00  kz  1  0  1
kzkpz_ww69  log  factor   9.4883156E-02  1.00e-10  1.00e+00  kz  1  0  1
kzkpz_ww70  log  factor   8.3586527E-02  1.00e-10  1.00e+00  kz  1  0  1
kzkpz_ww71  log  factor   0.1044114      1.00e-10  1.00e+00  kz  1  0  1
kzkpz_ww72  log  factor   0.1136091      1.00e-10  1.00e+00  kz  1  0  1
kzkpz_ww73  log  factor   0.1154150      1.00e-10  1.00e+00  kz  1  0  1
kzkpz_ww74  log  factor   9.0476563E-02  1.00e-10  1.00e+00  kz  1  0  1
kzkpz_ww75  log  factor   9.6971187E-02  1.00e-10  1.00e+00  kz  1  0  1
kzkpz_ww76  log  factor   0.1133479      1.00e-10  1.00e+00  kz  1  0  1
kzkpz_ww77  log  factor   0.1712579      1.00e-10  1.00e+00  kz  1  0  1
kzkpz_ww78  log  factor   0.1077482      1.00e-10  1.00e+00  kz  1  0  1
kzkpz_ww79  log  factor   0.1051080      1.00e-10  1.00e+00  kz  1  0  1
kzkpz_ww80  log  factor   9.1165604E-02  1.00e-10  1.00e+00  kz  1  0  1
kzkpz_ww81  log  factor   9.6680919E-02  1.00e-10  1.00e+00  kz  1  0  1
kzkpz_ww82  log  factor   8.6749195E-02  1.00e-10  1.00e+00  kz  1  0  1
kzkpz_ww83  log  factor   0.1049823      1.00e-10  1.00e+00  kz  1  0  1
kzkpz_ww84  log  factor   0.1014605      1.00e-10  1.00e+00  kz  1  0  1
kzkpz_ww85  log  factor   0.1083493      1.00e-10  1.00e+00  kz  1  0  1
kzkpz_ww86  log  factor   8.7762234E-02  1.00e-10  1.00e+00  kz  1  0  1