pcf
* control data
restart estimation
139   96233      14     0      5
14  6  single  point  1  0  0
2.000000e+001  -3.000000e+000  3.000000e-001  1.000000e-002  7
1.000000e+001  1.000000e+001  1.000000e-003
1.000000e-001 1 noaui
 -1  1.000000e-002  3  3  1.000000e-002  3
0  0  0
* parameter groups
irrch   relative   1.000000e-02   0.000000e+00   always_3   1.000000e+00   parabolic
dlrch   relative   1.000000e-02   0.000000e+00   always_3   1.000000e+00   parabolic
rch   relative   1.000000e-02   0.000000e+00   always_3   1.000000e+00   parabolic
evt   relative   1.000000e-02   0.000000e+00   always_3   1.000000e+00   parabolic
k1xpp   relative   1.000000e-02   0.000000e+00   always_3   1.000000e+00   parabolic
k1zfpp   relative   1.000000e-02   0.000000e+00   always_3   1.000000e+00   parabolic
k3xpp   relative   1.000000e-02   0.000000e+00   always_3   1.000000e+00   parabolic
k3zfpp   relative   1.000000e-02   0.000000e+00   always_3   1.000000e+00   parabolic
ss   relative   1.000000e-02   0.000000e+00   always_3   1.000000e+00   parabolic
sy   relative   1.000000e-02   0.000000e+00   always_3   1.000000e+00   parabolic
riv   relative   1.000000e-02   0.000000e+00   always_3   1.000000e+00   parabolic
fault   relative   1.000000e-02   0.000000e+00   always_3   1.000000e+00   parabolic
k2xpp   relative   1.000000e-02   0.000000e+00   always_3   1.000000e+00   parabolic
k2zfpp   relative   1.000000e-02   0.000000e+00   always_3   1.000000e+00   parabolic
* parameter data
irrchssmult   log   factor   8.9687217E-02  0.01   1.2   rch   1   0   1
dlrchtrmult   log   factor   1.2400272E-02  0.01   2   rch   1   0   1
floodrmult log   factor   1.0000000      0.5   1.5   rch   1   0   1
ssetmult   log   factor   0.5001566      0.1   2   evt   1   0   1
tretmult   log   factor   0.2027560      0.1   2   evt   1   0   1
etcons    log factor    2.000000      2.0 10.0 evt 1 0 1
etnatprod tied factor    2.000000      2.0 10.0 evt 1 0 1
etdryl    log factor   0.6161031      0.5 3.0 evt 1 0 1
etirrig  tied factor   0.6161031      0.5 3.0 evt 1 0 1
etintens  tied factor   0.6161031      0.5 3.0 evt 1 0 1
etwater   tied factor    2.000000      0.5 10.0 evt 1 0 1
rivc    log   factor    613.9806431      1.0+1   1.0e+4   riv   1   0   1
sy1   log   factor   3.1027956E-02  0.01   0.2   sy   1   0   1
sy2   log   factor   5.0000000E-02  1.0000000e-03   0.05   sy   1   0   1
sy3   log   factor   0.2000000      0.01   0.2   sy   1   0   1
ss2   log   factor   4.8983791E-06  1.000000e-06   1.000000e-05   ss   1   0   1
ss3   log   factor   8.7208017E-06  1.000000e-06   1.000000e-05   ss   1   0   1
faulthfb   log factor   7.4598121E-04  1.0e-5 1.0e-1 fault 1 0 1
faultkz    log factor   1.0671369E-02  1.0e-4 1.0e+1 fault 1 0 1
k1x1          log factor   0.1000000      0.1 15.0 k1xpp 1 0 1
k1x2          log factor   0.1000000      0.1 15.0 k1xpp 1 0 1
k1x3          log factor   0.1186230      0.1 15.0 k1xpp 1 0 1
k1x4          log factor   0.1810391      0.1 15.0 k1xpp 1 0 1
k1x5          log factor    4.869957      0.1 15.0 k1xpp 1 0 1
k1x6          log factor    12.24354      0.1 15.0 k1xpp 1 0 1
k1x7          log factor    15.00000      0.1 15.0 k1xpp 1 0 1
k1x8          log factor    15.00000      0.1 15.0 k1xpp 1 0 1
k1x9          log factor    15.00000      0.1 15.0 k1xpp 1 0 1
k1x10         log factor    15.00000      0.1 15.0 k1xpp 1 0 1
k1x11         log factor    15.00000      0.1 15.0 k1xpp 1 0 1
k1x12         log factor    1.015357      0.1 15.0 k1xpp 1 0 1
k1x13         tied factor   0.1000000      0.1 15.0 k1xpp 1 0 1
k1x14         tied factor    15.00000      0.1 15.0 k1xpp 1 0 1
k1x15         tied factor   0.1810391      0.1 15.0 k1xpp 1 0 1
k3x1          log factor    20.00000      0.1 20.0 k3xpp 1 0 1
k3x2          log factor    20.00000      0.1 20.0 k3xpp 1 0 1
k3x3          log factor    4.667288      0.1 20.0 k3xpp 1 0 1
k3x4          log factor    1.271861      0.1 20.0 k3xpp 1 0 1
k3x5          log factor    20.00000      0.1 20.0 k3xpp 1 0 1
k3x6          log factor    1.265808      0.1 20.0 k3xpp 1 0 1
k3x7          log factor    20.00000      0.1 20.0 k3xpp 1 0 1
k3x8          log factor    20.00000      0.1 20.0 k3xpp 1 0 1
k3x9          log factor    4.889943      0.1 20.0 k3xpp 1 0 1
k3x10         log factor    14.65502      0.1 20.0 k3xpp 1 0 1
k3x11         log factor    9.078254      0.1 20.0 k3xpp 1 0 1
k3x12         log factor    1.111724      0.1 20.0 k3xpp 1 0 1
k3x13         tied factor    20.00000      0.1 20.0 k3xpp 1 0 1
k3x14         tied factor    4.889943      0.1 20.0 k3xpp 1 0 1
k3x15         tied factor    1.271861      0.1 20.0 k3xpp 1 0 1
k1zf1         log factor   1.0000000E-02  0.0100 0.5 k1zfpp 1 0 1
k1zf2         log factor   1.0000000E-02  0.0100 0.5 k1zfpp 1 0 1
k1zf3         log factor   1.0000000E-02  0.0100 0.5 k1zfpp 1 0 1
k1zf4         log factor   0.5000000      0.0100 0.5 k1zfpp 1 0 1
k1zf5         log factor   6.8478597E-02  0.0100 0.5 k1zfpp 1 0 1
k1zf6         log factor   5.8215578E-02  0.0100 0.5 k1zfpp 1 0 1
k1zf7         log factor   0.1919643      0.0100 0.5 k1zfpp 1 0 1
k1zf8         log factor   0.3730681      0.0100 0.5 k1zfpp 1 0 1
k1zf9         log factor   0.3447662      0.0100 0.5 k1zfpp 1 0 1
k1zf10        log factor   0.1502743      0.0100 0.5 k1zfpp 1 0 1
k1zf11        log factor   0.1103562      0.0100 0.5 k1zfpp 1 0 1
k1zf12        log factor   0.1706211      0.0100 0.5 k1zfpp 1 0 1
k1zf13        tied factor   1.0000000E-02  0.0100 0.5 k1zfpp 1 0 1
k1zf14        tied factor   0.3447662      0.0100 0.5 k1zfpp 1 0 1
k1zf15        tied factor   0.5000000      0.0100 0.5 k1zfpp 1 0 1
k3zf1         log factor   1.0000000E-02  0.0100 0.5 k3zfpp 1 0 1
k3zf2         log factor   1.0000000E-02  0.0100 0.5 k3zfpp 1 0 1
k3zf3         log factor   1.0000000E-02  0.0100 0.5 k3zfpp 1 0 1
k3zf4         log factor   0.4722186      0.0100 0.5 k3zfpp 1 0 1
k3zf5         log factor   2.7793155E-02  0.0100 0.5 k3zfpp 1 0 1
k3zf6         log factor   8.7379290E-02  0.0100 0.5 k3zfpp 1 0 1
k3zf7         log factor   0.5000000      0.0100 0.5 k3zfpp 1 0 1
k3zf8         log factor   0.1854000      0.0100 0.5 k3zfpp 1 0 1
k3zf9         log factor   0.1288435      0.0100 0.5 k3zfpp 1 0 1
k3zf10        log factor   3.8759447E-02  0.0100 0.5 k3zfpp 1 0 1
k3zf11        log factor   1.0000000E-02  0.0100 0.5 k3zfpp 1 0 1
k3zf12        log factor   1.0000000E-02  0.0100 0.5 k3zfpp 1 0 1
k3zf13        tied factor   1.0000000E-02  0.0100 0.5 k3zfpp 1 0 1
k3zf14        tied factor   0.1288435      0.0100 0.5 k3zfpp 1 0 1
k3zf15        tied factor   0.4722186      0.0100 0.5 k3zfpp 1 0 1
irrch1   log   factor   1   0.8   1.2   irrch   1   0   1
irrch2   log   factor   1   0.8   1.2   irrch   1   0   1
irrch3   log   factor   1   0.8   1.2   irrch   1   0   1
irrch4   log   factor   1   0.8   1.2   irrch   1   0   1
irrch5   log   factor   1   0.8   1.2   irrch   1   0   1
irrch6   log   factor   1   0.8   1.2   irrch   1   0   1
irrch7   log   factor   1   0.8   1.2   irrch   1   0   1
irrch8   log   factor   1   0.8   1.2   irrch   1   0   1
irrch9   log   factor   1   0.8   1.2   irrch   1   0   1
irrch10   log   factor   1   0.8   1.2   irrch   1   0   1
irrch11   log   factor   1   0.8   1.2   irrch   1   0   1
irrch12   log   factor   1   0.8   1.2   irrch   1   0   1
irrch13   tied   factor   1   0.8   1.2   irrch   1   0   1
irrch14   tied   factor   1   0.8   1.2   irrch   1   0   1
irrch15   tied   factor   1   0.8   1.2   irrch   1   0   1
dlrch1   log   factor   1   0.5   1.5   dlrch   1   0   1
dlrch2   log   factor   1   0.5   1.5   dlrch   1   0   1
dlrch3   log   factor   1   0.5   1.5   dlrch   1   0   1
dlrch4   log   factor   1   0.5   1.5   dlrch   1   0   1
dlrch5   log   factor   1   0.5   1.5   dlrch   1   0   1
dlrch6   log   factor   1   0.5   1.5   dlrch   1   0   1
dlrch7   log   factor   1   0.5   1.5   dlrch   1   0   1
dlrch8   log   factor   1   0.5   1.5   dlrch   1   0   1
dlrch9   log   factor   1   0.5   1.5   dlrch   1   0   1
dlrch10   log   factor   1   0.5   1.5   dlrch   1   0   1
dlrch11   log   factor   1   0.5   1.5   dlrch   1   0   1
dlrch12   log   factor   1   0.5   1.5   dlrch   1   0   1
dlrch13   tied   factor   1   0.5   1.5   dlrch   1   0   1
dlrch14   tied   factor   1   0.5   1.5   dlrch   1   0   1
dlrch15   tied   factor   1   0.5   1.5   dlrch   1   0   1
k2x1          log factor   1.0000000E-04  0.0001 1.0 k2xpp 1 0 1
k2x2          log factor   1.0000000E-04  0.0001 1.0 k2xpp 1 0 1
k2x3          log factor   1.3805654E-04  0.0001 1.0 k2xpp 1 0 1
k2x4          log factor   7.7156063E-04  0.0001 1.0 k2xpp 1 0 1
k2x5          log factor   1.9933549E-04  0.0001 1.0 k2xpp 1 0 1
k2x6          log factor   4.1665352E-04  0.0001 1.0 k2xpp 1 0 1
k2x7          log factor   1.5715958E-04  0.0001 1.0 k2xpp 1 0 1
k2x8          log factor   1.8920531E-03  0.0001 1.0 k2xpp 1 0 1
k2x9          log factor   1.0727784E-04  0.0001 1.0 k2xpp 1 0 1
k2x10         log factor   6.2463863E-03  0.0001 1.0 k2xpp 1 0 1
k2x11         log factor   1.0000000E-04  0.0001 1.0 k2xpp 1 0 1
k2x12         log factor   3.5927773E-04  0.0001 1.0 k2xpp 1 0 1
k2x13         tied factor   1.0000000E-04  0.0001 1.0 k2xpp 1 0 1
k2x14         tied factor   1.0727784E-04  0.0001 1.0 k2xpp 1 0 1
k2x15         tied factor   7.7156063E-04  0.0001 1.0 k2xpp 1 0 1
k2zf1         log factor   0.2480588      0.0100 1.0 k2zfpp 1 0 1
k2zf2         log factor   0.3256774      0.0100 1.0 k2zfpp 1 0 1
k2zf3         log factor   0.3821997      0.0100 1.0 k2zfpp 1 0 1
k2zf4         log factor   0.6703269      0.0100 1.0 k2zfpp 1 0 1
k2zf5         log factor   0.2169892      0.0100 1.0 k2zfpp 1 0 1
k2zf6         log factor   0.3389944      0.0100 1.0 k2zfpp 1 0 1
k2zf7         log factor   0.3393015      0.0100 1.0 k2zfpp 1 0 1
k2zf8         log factor    1.000000      0.0100 1.0 k2zfpp 1 0 1
k2zf9         log factor   0.1279584      0.0100 1.0 k2zfpp 1 0 1
k2zf10        log factor    1.000000      0.0100 1.0 k2zfpp 1 0 1
k2zf11        log factor   7.0265945E-02  0.0100 1.0 k2zfpp 1 0 1
k2zf12        log factor   0.3896414      0.0100 1.0 k2zfpp 1 0 1
k2zf13        tied factor   0.3256774      0.0100 1.0 k2zfpp 1 0 1
k2zf14        tied factor   0.1279584      0.0100 1.0 k2zfpp 1 0 1
k2zf15        tied factor   0.6703269      0.0100 1.0 k2zfpp 1 0 1
etnatprod etcons
etwater etcons
etirrig etdryl
etintens etdryl
k1x13 k1x2
k1x14 k1x9
k1x15 k1x4
k3x13 k3x2
k3x14 k3x9
k3x15 k3x4
k1zf13 k1zf2
k1zf14 k1zf9
k1zf15 k1zf4
k3zf13 k3zf2
k3zf14 k3zf9
k3zf15 k3zf4
irrch13 irrch2
irrch14 irrch9
irrch15 irrch4
dlrch13 dlrch2
dlrch14 dlrch9
dlrch15 dlrch4
k2x13 k2x2
k2x14 k2x9
k2x15 k2x4
k2zf13 k2zf2
k2zf14 k2zf9
k2zf15 k2zf4
* observation groups
head
vdif
xdif
rivdif
predRIVQ
* observation data
hd1             49.310000 1.00E+00 head
hd2             49.130000 1.00E+00 head
hd3             49.340000 1.00E+00 head
hd4             49.280000 1.00E+00 head
hd5             49.240000 1.00E+00 head
hd6             49.290000 1.00E+00 head
hd7             49.090000 1.00E+00 head
hd8             48.990000 1.00E+00 head
hd9             49.190000 1.00E+00 head
hd10            49.020000 1.00E+00 head
hd11            49.130000 1.00E+00 head
hd12            49.090000 1.00E+00 head
hd13            49.090000 1.00E+00 head
hd14            49.130000 1.00E+00 head
hd15            49.220000 1.00E+00 head
hd16            49.160000 1.00E+00 head
hd17            49.340000 1.00E+00 head
hd18            49.270000 1.00E+00 head
hd19            49.230000 1.00E+00 head
hd20            49.150000 1.00E+00 head
hd21            49.260000 1.00E+00 head
hd22            49.350000 1.00E+00 head
hd23            49.330000 1.00E+00 head
hd24            49.260000 1.00E+00 head
hd25            49.250000 1.00E+00 head
hd26            49.200000 1.00E+00 head
hd27            49.170000 1.00E+00 head
hd28            49.180000 1.00E+00 head
hd29            49.220000 1.00E+00 head
hd30            49.190000 1.00E+00 head
hd31            49.190000 1.00E+00 head
hd32            49.250000 1.00E+00 head
hd33            49.280000 1.00E+00 head
hd34            49.290000 1.00E+00 head
hd35            49.190000 1.00E+00 head
hd36            49.190000 1.00E+00 head
hd37            49.200000 1.00E+00 head
hd38            49.260000 1.00E+00 head
hd39            49.130000 1.00E+00 head
hd40            49.210000 1.00E+00 head
hd41            49.170000 1.00E+00 head
hd42            49.140000 1.00E+00 head
hd43            49.100000 1.00E+00 head
hd44            49.090000 1.00E+00 head
hd45            49.080000 1.00E+00 head
hd46            49.070000 1.00E+00 head
hd47            49.110000 1.00E+00 head
hd48            49.170000 1.00E+00 head
hd49            49.260000 1.00E+00 head
hd50            49.230000 1.00E+00 head
hd51            49.100000 1.00E+00 head
hd52            49.130000 1.00E+00 head
hd53            49.150000 1.00E+00 head
hd54            49.110000 1.00E+00 head
hd55            49.160000 1.00E+00 head
hd56            49.100000 1.00E+00 head
hd57            49.090000 1.00E+00 head
hd58            49.080000 1.00E+00 head
hd59            49.110000 1.00E+00 head
hd60            49.120000 1.00E+00 head
hd61            49.100000 1.00E+00 head
hd62            49.110000 1.00E+00 head
hd63            49.120000 1.00E+00 head
hd64            49.150000 1.00E+00 head
hd65            49.270000 1.00E+00 head
hd66            49.220000 1.00E+00 head
hd67            49.350000 1.00E+00 head
hd68            49.280000 1.00E+00 head
hd69            49.260000 1.00E+00 head
hd70            49.360000 1.00E+00 head
hd71            49.480000 1.00E+00 head
hd72            49.390000 1.00E+00 head
hd73            49.490000 1.00E+00 head
hd74            49.440000 1.00E+00 head
hd75            49.490000 1.00E+00 head
hd76            49.570000 1.00E+00 head
hd77            49.490000 1.00E+00 head
hd78            49.460000 1.00E+00 head
hd79            49.520000 1.00E+00 head
hd80            49.470000 1.00E+00 head
hd81            49.540000 1.00E+00 head
hd82            49.530000 1.00E+00 head
hd83            49.420000 1.00E+00 head
hd84            49.490000 1.00E+00 head
hd85            49.430000 1.00E+00 head
hd86            49.360000 1.00E+00 head
hd87            49.320000 1.00E+00 head
hd88            49.280000 1.00E+00 head
hd89            49.280000 1.00E+00 head
hd90            49.210000 1.00E+00 head
hd91            49.290000 1.00E+00 head
hd92            49.420000 1.00E+00 head
hd93            49.530000 1.00E+00 head
hd94            49.290000 1.00E+00 head
hd95            49.290000 1.00E+00 head
hd96            49.540000 1.00E+00 head
hd97            49.760000 1.00E+00 head
hd98            49.790000 1.00E+00 head
hd99            49.840000 1.00E+00 head
hd100           49.810000 1.00E+00 head
hd101           49.810000 1.00E+00 head
hd102           49.750000 1.00E+00 head
hd103           49.560000 1.00E+00 head
hd104           49.510000 1.00E+00 head
hd105           49.470000 1.00E+00 head
hd106           49.460000 1.00E+00 head
hd107           49.460000 1.00E+00 head
hd108           49.470000 1.00E+00 head
hd109           49.470000 1.00E+00 head
hd110           49.420000 1.00E+00 head
hd111           49.470000 1.00E+00 head
hd112           49.530000 1.00E+00 head
hd113           49.420000 1.00E+00 head
hd114           49.310000 1.00E+00 head
hd115           49.290000 1.00E+00 head
hd116           49.290000 1.00E+00 head
hd117           49.280000 1.00E+00 head
hd118           49.240000 1.00E+00 head
hd119           49.240000 1.00E+00 head
hd120           49.270000 1.00E+00 head
hd121           49.350000 1.00E+00 head
hd122           49.350000 1.00E+00 head
hd123           49.330000 1.00E+00 head
hd124           49.340000 1.00E+00 head
hd125           49.350000 1.00E+00 head
hd126           49.240000 1.00E+00 head
hd127           49.280000 1.00E+00 head
hd128           49.150000 1.00E+00 head
hd129           49.220000 1.00E+00 head
hd130           49.180000 1.00E+00 head
hd131           49.490000 1.00E+00 head
hd132           49.090000 1.00E+00 head
hd133           49.150000 1.00E+00 head
hd134           49.230000 1.00E+00 head
hd135           49.220000 1.00E+00 head
hd136           49.110000 1.00E+00 head
hd137           49.160000 1.00E+00 head
hd138           49.130000 1.00E+00 head
hd139           48.990000 1.00E+00 head
hd140           49.020000 1.00E+00 head
hd141           48.970000 1.00E+00 head
hd142           48.960000 1.00E+00 head
hd143           49.030000 1.00E+00 head
hd144           49.040000 1.00E+00 head
hd145           49.040000 1.00E+00 head
hd146           49.040000 1.00E+00 head
hd147           49.070000 1.00E+00 head
hd148           49.050000 1.00E+00 head
hd149           49.010000 1.00E+00 head
hd150           49.000000 1.00E+00 head
hd151           49.010000 1.00E+00 head
hd152           48.940000 1.00E+00 head
hd153           48.940000 1.00E+00 head
hd154           48.920000 1.00E+00 head
hd155           48.660000 1.00E+00 head
hd156           48.890000 1.00E+00 head
hd157           48.890000 1.00E+00 head
hd158           49.060000 1.00E+00 head
hd159           48.840000 1.00E+00 head
hd160           48.780000 1.00E+00 head
hd161           48.780000 1.00E+00 head
hd162           48.730000 1.00E+00 head
hd163           48.750000 1.00E+00 head
hd164           48.650000 1.00E+00 head
hd165           48.730000 1.00E+00 head
hd166           48.730000 1.00E+00 head
hd167           48.730000 1.00E+00 head
hd168           48.710000 1.00E+00 head
hd169           48.760000 1.00E+00 head
hd170           48.710000 1.00E+00 head
hd171           48.660000 1.00E+00 head
hd172           48.620000 1.00E+00 head
hd173           48.600000 1.00E+00 head
hd174           48.600000 1.00E+00 head
hd175           48.600000 1.00E+00 head
hd176           48.620000 1.00E+00 head
hd177           48.580000 1.00E+00 head
hd178           48.520000 1.00E+00 head
hd179           48.520000 1.00E+00 head
hd180           48.570000 1.00E+00 head
hd181           48.540000 1.00E+00 head
hd182           48.540000 1.00E+00 head
hd183           48.540000 1.00E+00 head
hd184           48.490000 1.00E+00 head
hd185           48.520000 1.00E+00 head
hd186           48.500000 1.00E+00 head
hd187           48.560000 1.00E+00 head
hd188           48.560000 1.00E+00 head
hd189           48.510000 1.00E+00 head
hd190           48.500000 1.00E+00 head
hd191           48.500000 1.00E+00 head
hd192           48.500000 1.00E+00 head
hd193           48.520000 1.00E+00 head
hd194           48.480000 1.00E+00 head
hd195           48.480000 1.00E+00 head
hd196           48.470000 1.00E+00 head
hd197           48.430000 1.00E+00 head
hd198           48.420000 1.00E+00 head
hd199           48.510000 1.00E+00 head
hd200           39.540000 1.00E+00 head
hd201           39.540000 1.00E+00 head
hd202           39.420000 1.00E+00 head
hd203           39.330000 1.00E+00 head
hd204           39.160000 1.00E+00 head
hd205           39.130000 1.00E+00 head
hd206           39.150000 1.00E+00 head
hd207           39.140000 1.00E+00 head
hd208           39.050000 1.00E+00 head
hd209           39.010000 1.00E+00 head
hd210           38.980000 1.00E+00 head
hd211           38.970000 1.00E+00 head
hd212           38.990000 1.00E+00 head
hd213           39.100000 1.00E+00 head
hd214           39.240000 1.00E+00 head
hd215           39.300000 1.00E+00 head
hd216           39.310000 1.00E+00 head
hd217           39.200000 1.00E+00 head
hd218           39.110000 1.00E+00 head
hd219           39.060000 1.00E+00 head
hd220           39.060000 1.00E+00 head
hd221           39.140000 1.00E+00 head
hd222           39.190000 1.00E+00 head
hd223           39.090000 1.00E+00 head
hd224           38.900000 1.00E+00 head
hd225           38.930000 1.00E+00 head
hd226           38.900000 1.00E+00 head
hd227           39.060000 1.00E+00 head
hd228           39.090000 1.00E+00 head
hd229           39.010000 1.00E+00 head
hd230           38.910000 1.00E+00 head
hd231           38.880000 1.00E+00 head
hd232           38.970000 1.00E+00 head
hd233           39.190000 1.00E+00 head
hd234           39.330000 1.00E+00 head
hd235           39.370000 1.00E+00 head
hd236           39.480000 1.00E+00 head
hd237           39.450000 1.00E+00 head
hd238           39.220000 1.00E+00 head
hd239           39.150000 1.00E+00 head
hd240           39.150000 1.00E+00 head
hd241           39.120000 1.00E+00 head
hd242           39.180000 1.00E+00 head
hd243           39.270000 1.00E+00 head
hd244           39.590000 1.00E+00 head
hd245           39.670000 1.00E+00 head
hd246           39.650000 1.00E+00 head
hd247           39.310000 1.00E+00 head
hd248           39.240000 1.00E+00 head
hd249           39.300000 1.00E+00 head
hd250           39.310000 1.00E+00 head
hd251           39.170000 1.00E+00 head
hd252           39.090000 1.00E+00 head
hd253           39.040000 1.00E+00 head
hd254           39.050000 1.00E+00 head
hd255           39.630000 1.00E+00 head
hd256           39.380000 1.00E+00 head
hd257           39.370000 1.00E+00 head
hd258           39.370000 1.00E+00 head
hd259           39.500000 1.00E+00 head
hd260           39.820000 1.00E+00 head
hd261           39.700000 1.00E+00 head
hd262           39.700000 1.00E+00 head
hd263           39.610000 1.00E+00 head
hd264           39.440000 1.00E+00 head
hd265           39.380000 1.00E+00 head
hd266           39.310000 1.00E+00 head
hd267           39.240000 1.00E+00 head
hd268           39.210000 1.00E+00 head
hd269           39.340000 1.00E+00 head
hd270           39.540000 1.00E+00 head
hd271           39.400000 1.00E+00 head
hd272           39.310000 1.00E+00 head
hd273           39.190000 1.00E+00 head
hd274           39.150000 1.00E+00 head
hd275           39.110000 1.00E+00 head
hd276           39.010000 1.00E+00 head
hd277           39.400000 1.00E+00 head
hd278           39.590000 1.00E+00 head
hd279           39.590000 1.00E+00 head
hd280           39.390000 1.00E+00 head
hd281           39.270000 1.00E+00 head
hd282           39.170000 1.00E+00 head
hd283           39.130000 1.00E+00 head
hd284           39.040000 1.00E+00 head
hd285           38.910000 1.00E+00 head
hd286           38.870000 1.00E+00 head
hd287           38.840000 1.00E+00 head
hd288           38.880000 1.00E+00 head
hd289           38.910000 1.00E+00 head
hd290           38.810000 1.00E+00 head
hd291           38.750000 1.00E+00 head
hd292           38.760000 1.00E+00 head
hd293           38.730000 1.00E+00 head
hd294           38.740000 1.00E+00 head
hd295           38.780000 1.00E+00 head
hd296           38.700000 1.00E+00 head
hd297           38.650000 1.00E+00 head
hd298           38.760000 1.00E+00 head
hd299           38.670000 1.00E+00 head
hd300           38.620000 1.00E+00 head
hd301           38.600000 1.00E+00 head
hd302           38.580000 1.00E+00 head
hd303           38.540000 1.00E+00 head
hd304           38.490000 1.00E+00 head
hd305           38.260000 1.00E+00 head
hd306           38.450000 1.00E+00 head
hd307           38.430000 1.00E+00 head
hd308           38.400000 1.00E+00 head
hd309           38.380000 1.00E+00 head
hd310           38.340000 1.00E+00 head
hd311           38.280000 1.00E+00 head
hd312           38.270000 1.00E+00 head
hd313           38.370000 1.00E+00 head
hd314           38.260000 1.00E+00 head
hd315           38.250000 1.00E+00 head
hd316           38.180000 1.00E+00 head
hd317           38.200000 1.00E+00 head
hd318           38.200000 1.00E+00 head
hd319           38.200000 1.00E+00 head
hd320           38.140000 1.00E+00 head
hd321           38.120000 1.00E+00 head
hd322           38.060000 1.00E+00 head
hd323           38.100000 1.00E+00 head
hd324           38.150000 1.00E+00 head
hd325           38.190000 1.00E+00 head
hd326           38.190000 1.00E+00 head
hd327           38.050000 1.00E+00 head
hd328           38.040000 1.00E+00 head
hd329           38.050000 1.00E+00 head
hd330           38.020000 1.00E+00 head
hd331           37.990000 1.00E+00 head
hd332           37.895000 1.00E+00 head
hd333           37.890000 1.00E+00 head
hd334           37.675000 1.00E+00 head
hd335           38.410000 1.00E+00 head
hd336           38.340000 1.00E+00 head
hd337           38.240000 1.00E+00 head
hd338           38.130000 1.00E+00 head
hd339           38.060000 1.00E+00 head
hd340           38.030000 1.00E+00 head
hd341           37.950000 1.00E+00 head
hd342           37.900000 1.00E+00 head
hd343           37.980000 1.00E+00 head
hd344           38.220000 1.00E+00 head
hd345           43.671000 1.00E+00 head
hd346           43.721000 1.00E+00 head
hd347           43.791000 1.00E+00 head
hd348           43.841000 1.00E+00 head
hd349           43.801000 1.00E+00 head
hd350           43.461000 1.00E+00 head
hd351           43.701000 1.00E+00 head
hd352           43.661000 1.00E+00 head
hd353           43.651000 1.00E+00 head
hd354           43.611000 1.00E+00 head
hd355           43.601000 1.00E+00 head
hd356           43.601000 1.00E+00 head
hd357           43.561000 1.00E+00 head
hd358           43.531000 1.00E+00 head
hd359           43.541000 1.00E+00 head
hd360           43.521000 1.00E+00 head
hd361           43.501000 1.00E+00 head
hd362           43.521000 1.00E+00 head
hd363           43.591000 1.00E+00 head
hd364           43.641000 1.00E+00 head
hd365           43.651000 1.00E+00 head
hd366           43.601000 1.00E+00 head
hd367           43.561000 1.00E+00 head
hd368           43.541000 1.00E+00 head
hd369           43.531000 1.00E+00 head
hd370           43.591000 1.00E+00 head
hd371           43.611000 1.00E+00 head
hd372           43.571000 1.00E+00 head
hd373           43.501000 1.00E+00 head
hd374           43.491000 1.00E+00 head
hd375           43.461000 1.00E+00 head
hd376           43.571000 1.00E+00 head
hd377           43.581000 1.00E+00 head
hd378           43.541000 1.00E+00 head
hd379           43.511000 1.00E+00 head
hd380           43.491000 1.00E+00 head
hd381           43.501000 1.00E+00 head
hd382           43.701000 1.00E+00 head
hd383           43.721000 1.00E+00 head
hd384           43.761000 1.00E+00 head
hd385           43.851000 1.00E+00 head
hd386           43.871000 1.00E+00 head
hd387           43.791000 1.00E+00 head
hd388           43.801000 1.00E+00 head
hd389           43.751000 1.00E+00 head
hd390           43.751000 1.00E+00 head
hd391           43.741000 1.00E+00 head
hd392           43.751000 1.00E+00 head
hd393           43.751000 1.00E+00 head
hd394           43.811000 1.00E+00 head
hd395           43.951000 1.00E+00 head
hd396           44.031000 1.00E+00 head
hd397           44.051000 1.00E+00 head
hd398           44.011000 1.00E+00 head
hd399           44.001000 1.00E+00 head
hd400           43.971000 1.00E+00 head
hd401           43.921000 1.00E+00 head
hd402           43.941000 1.00E+00 head
hd403           43.891000 1.00E+00 head
hd404           43.891000 1.00E+00 head
hd405           43.911000 1.00E+00 head
hd406           44.301000 1.00E+00 head
hd407           43.931000 1.00E+00 head
hd408           43.981000 1.00E+00 head
hd409           43.931000 1.00E+00 head
hd410           43.881000 1.00E+00 head
hd411           43.881000 1.00E+00 head
hd412           43.831000 1.00E+00 head
hd413           43.811000 1.00E+00 head
hd414           43.781000 1.00E+00 head
hd415           43.811000 1.00E+00 head
hd416           43.771000 1.00E+00 head
hd417           43.731000 1.00E+00 head
hd418           43.731000 1.00E+00 head
hd419           43.771000 1.00E+00 head
hd420           43.871000 1.00E+00 head
hd421           44.051000 1.00E+00 head
hd422           44.101000 1.00E+00 head
hd423           44.101000 1.00E+00 head
hd424           44.101000 1.00E+00 head
hd425           44.101000 1.00E+00 head
hd426           44.121000 1.00E+00 head
hd427           44.131000 1.00E+00 head
hd428           44.191000 1.00E+00 head
hd429           44.301000 1.00E+00 head
hd430           44.411000 1.00E+00 head
hd431           44.431000 1.00E+00 head
hd432           44.431000 1.00E+00 head
hd433           44.421000 1.00E+00 head
hd434           44.401000 1.00E+00 head
hd435           44.411000 1.00E+00 head
hd436           44.391000 1.00E+00 head
hd437           44.361000 1.00E+00 head
hd438           44.251000 1.00E+00 head
hd439           44.201000 1.00E+00 head
hd440           44.191000 1.00E+00 head
hd441           44.151000 1.00E+00 head
hd442           44.141000 1.00E+00 head
hd443           44.081000 1.00E+00 head
hd444           44.081000 1.00E+00 head
hd445           43.751000 1.00E+00 head
hd446           44.341000 1.00E+00 head
hd447           44.061000 1.00E+00 head
hd448           44.071000 1.00E+00 head
hd449           44.151000 1.00E+00 head
hd450           44.421000 1.00E+00 head
hd451           44.101000 1.00E+00 head
hd452           44.071000 1.00E+00 head
hd453           44.051000 1.00E+00 head
hd454           44.021000 1.00E+00 head
hd455           43.991000 1.00E+00 head
hd456           43.961000 1.00E+00 head
hd457           43.951000 1.00E+00 head
hd458           43.941000 1.00E+00 head
hd459           43.941000 1.00E+00 head
hd460           43.961000 1.00E+00 head
hd461           44.041000 1.00E+00 head
hd462           44.091000 1.00E+00 head
hd463           44.141000 1.00E+00 head