pcf
* control data
             restart          estimation
      1562      2193         7         0         1
         4         1              single               point         1         0         0
   1.000000E+01   2.000000E+00   1.500000E-01   1.000000E-03       100        30          lamforgive
   4.000000E+00   4.000000E+00   1.000000E-03         0         1
   1.000000E-01
         1   5.000000E-02        30        30   1.000000E-03        30
         1         1         1
* singular value decomposition
         1
       306    1.000000E-06
30
* parameter groups
hk                     relative              4.0000000000E-02      0.0 always_2              2.0000000000E+00      parabolic             1.0000000000E-05      5.0000000000E-01      smaller              
vk                     relative              4.0000000000E-02      0.0 always_2              2.0000000000E+00      parabolic             1.0000000000E-05      5.0000000000E-01      smaller              
hfb                    relative              4.0000000000E-02      0.0 always_2              2.0000000000E+00      parabolic             1.0000000000E-05      5.0000000000E-01      smaller              
ghb                    relative              4.0000000000E-02      0.0 always_2              2.0000000000E+00      parabolic             1.0000000000E-05      5.0000000000E-01      smaller              
drn                    relative              4.0000000000E-02      0.0 always_2              2.0000000000E+00      parabolic             1.0000000000E-05      5.0000000000E-01      smaller              
ss                     relative              4.0000000000E-02      0.0 always_2              2.0000000000E+00      parabolic             1.0000000000E-05      5.0000000000E-01      smaller              
sy                     relative              4.0000000000E-02      0.0 always_2              2.0000000000E+00      parabolic             1.0000000000E-05      5.0000000000E-01      smaller              
* parameter data
rch_mlt_1             log                   factor                1.0000000000E+00      5.0000000000E-01      2.0000000000E+00      ghb                   1.0000000000E+00      0.0000000000E+00      1          
ghbm_del_r            log                   factor                3.0000000000E+01      3.0000000000E+01      1.0000000000E+06      ghb                   1.0000000000E+00      0.0000000000E+00      1          
ghbocean_w            log                   factor                3.1243810000E-02      1.0000000000E-04      1.0000000000E+06      ghb                   1.0000000000E+00      0.0000000000E+00      1          
ghbwest_2             log                   factor                4.0910000000E-04      1.0000000000E-04      1.0000000000E+06      ghb                   1.0000000000E+00      0.0000000000E+00      1          
ghbwest_3             log                   factor                3.4576000000E-03      1.0000000000E-04      1.0000000000E+06      ghb                   1.0000000000E+00      0.0000000000E+00      1          
ghbwest_5             log                   factor                1.0000000000E-04      1.0000000000E-04      1.0000000000E+06      ghb                   1.0000000000E+00      0.0000000000E+00      1          
ghbwest_6             log                   factor                2.4590000000E-04      1.0000000000E-04      1.0000000000E+06      ghb                   1.0000000000E+00      0.0000000000E+00      1          
ghbwest_7             log                   factor                1.2191200000E-02      1.0000000000E-04      1.0000000000E+06      ghb                   1.0000000000E+00      0.0000000000E+00      1          
ghbwest_8             log                   factor                9.5700000000E-04      1.0000000000E-04      1.0000000000E+06      ghb                   1.0000000000E+00      0.0000000000E+00      1          
ghbwest_9             log                   factor                1.1376000000E-03      1.0000000000E-04      1.0000000000E+06      ghb                   1.0000000000E+00      0.0000000000E+00      1          
ghbwest_10            log                   factor                5.0699850000E-02      1.0000000000E-04      1.0000000000E+06      ghb                   1.0000000000E+00      0.0000000000E+00      1          
ghbwest_11            log                   factor                1.2229170000E-02      1.0000000000E-04      1.0000000000E+06      ghb                   1.0000000000E+00      0.0000000000E+00      1          
ghbwest_12            log                   factor                4.8028000000E-04      1.0000000000E-04      1.0000000000E+06      ghb                   1.0000000000E+00      0.0000000000E+00      1          
ghbwest_13            log                   factor                1.1444300000E-03      1.0000000000E-04      1.0000000000E+06      ghb                   1.0000000000E+00      0.0000000000E+00      1          
hbchars_bsp           fixed                 factor                1.0000000000E+03      1.0000000000E-10      1.0000000000E+05      hfb                   1.0000000000E+00      0.0000000000E+00      1          
hbchars_uwa           log                   factor                3.6619365000E-03      1.0000000000E-10      1.0000000000E+05      hfb                   1.0000000000E+00      0.0000000000E+00      1          
hbchars_uwb           log                   factor                3.6619365000E-03      1.0000000000E-10      1.0000000000E+05      hfb                   1.0000000000E+00      0.0000000000E+00      1          
hbchars_lw            log                   factor                1.6950000000E-04      1.0000000000E-10      1.0000000000E+05      hfb                   1.0000000000E+00      0.0000000000E+00      1          
hbchars_lba           log                   factor                1.6950000000E-04      1.0000000000E-10      1.0000000000E+05      hfb                   1.0000000000E+00      0.0000000000E+00      1          
hbchars_lbb           log                   factor                1.6950000000E-04      1.0000000000E-10      1.0000000000E+05      hfb                   1.0000000000E+00      0.0000000000E+00      1          
hbchars_lbc           log                   factor                8.7629744000E-08      1.0000000000E-10      1.0000000000E+05      hfb                   1.0000000000E+00      0.0000000000E+00      1          
hbsme_pac             log                   factor                1.6433591000E-05      1.0000000000E-10      1.0000000000E+05      hfb                   1.0000000000E+00      0.0000000000E+00      1          
hbsme_bs              log                   factor                1.6433591000E-05      1.0000000000E-10      1.0000000000E+05      hfb                   1.0000000000E+00      0.0000000000E+00      1          
hbsme_uwa             log                   factor                8.6433591000E-06      1.0000000000E-10      1.0000000000E+05      hfb                   1.0000000000E+00      0.0000000000E+00      1          
hbsme_uwb             log                   factor                8.4253256000E-06      1.0000000000E-10      1.0000000000E+05      hfb                   1.0000000000E+00      0.0000000000E+00      1          
hbsme_lw              log                   factor                7.7785900000E-06      1.0000000000E-10      1.0000000000E+05      hfb                   1.0000000000E+00      0.0000000000E+00      1          
hbsme_lbbc            log                   factor                7.7785900000E-06      1.0000000000E-10      1.0000000000E+05      hfb                   1.0000000000E+00      0.0000000000E+00      1          
hbsm_fix_bs           log                   factor                1.6442988000E-05      1.0000000000E-10      1.0000000000E+05      hfb                   1.0000000000E+00      0.0000000000E+00      1          
hbsm_fix_lw           log                   factor                8.2398557000E-06      1.0000000000E-10      1.0000000000E+05      hfb                   1.0000000000E+00      0.0000000000E+00      1          
hbs_m_mes             log                   factor                8.0479860000E-04      1.0000000000E-10      1.0000000000E+05      hfb                   1.0000000000E+00      0.0000000000E+00      1          
hbs_m_pac             log                   factor                6.3052500000E-07      1.0000000000E-10      1.0000000000E+05      hfb                   1.0000000000E+00      0.0000000000E+00      1          
hbs_m_bsp             log                   factor                6.3052500000E-07      1.0000000000E-10      1.0000000000E+05      hfb                   1.0000000000E+00      0.0000000000E+00      1          
hbs_m_uwa             log                   factor                6.3052500000E-07      1.0000000000E-10      1.0000000000E+05      hfb                   1.0000000000E+00      0.0000000000E+00      1          
hbs_m_lw              log                   factor                6.3052500000E-07      1.0000000000E-10      1.0000000000E+05      hfb                   1.0000000000E+00      0.0000000000E+00      1          
hbs_m_lba             log                   factor                6.3052500000E-07      1.0000000000E-10      1.0000000000E+05      hfb                   1.0000000000E+00      0.0000000000E+00      1          
hbs_m_lbc             log                   factor                6.3052500000E-07      1.0000000000E-10      1.0000000000E+05      hfb                   1.0000000000E+00      0.0000000000E+00      1          
drn_balcr             log                   factor                1.0000000000E+06      1.0000000000E-10      1.0000000000E+08      drn                   1.0000000000E+00      0.0000000000E+00      1          
drn_smfoot            log                   factor                1.0000000000E+05      1.0000000000E-10      1.0000000000E+08      drn                   1.0000000000E+00      0.0000000000E+00      1          
geohk02-01            log                   factor                3.9139700000E+02      1.0000000000E-09      1.3000000000E+03      hk                    1.0000000000E+00      0.0000000000E+00      1          
geohk02-02            log                   factor                2.2107320000E+02      1.0000000000E-09      1.5000000000E+03      hk                    1.0000000000E+00      0.0000000000E+00      1          
geohk02-03            log                   factor                3.0152060000E+01      1.0000000000E-09      1.5000000000E+03      hk                    1.0000000000E+00      0.0000000000E+00      1          
geohk02-04            log                   factor                3.1438880000E+00      1.0000000000E-09      1.5000000000E+03      hk                    1.0000000000E+00      0.0000000000E+00      1          
geohk02-05            log                   factor                2.5831800000E+01      1.0000000000E-09      1.5000000000E+03      hk                    1.0000000000E+00      0.0000000000E+00      1          
geohk02-06            log                   factor                5.6601980000E+01      1.0000000000E-09      6.0000000000E+01      hk                    1.0000000000E+00      0.0000000000E+00      1          
geohk02-07            log                   factor                5.5635060000E+01      7.0000000000E+00      1.5000000000E+03      hk                    1.0000000000E+00      0.0000000000E+00      1          
geohk02-08            log                   factor                9.8272540000E+01      1.0000000000E-09      1.5000000000E+03      hk                    1.0000000000E+00      0.0000000000E+00      1          
geohk02-09            log                   factor                2.3316000000E+01      1.0000000000E-09      1.5000000000E+03      hk                    1.0000000000E+00      0.0000000000E+00      1          
geohk02-10            log                   factor                1.2090770000E+02      1.0000000000E-09      1.5000000000E+03      hk                    1.0000000000E+00      0.0000000000E+00      1          
geohk02-11            log                   factor                3.0096270000E+02      1.0000000000E-09      1.5000000000E+03      hk                    1.0000000000E+00      0.0000000000E+00      1          
geohk02-12            log                   factor                3.4741267000E+00      1.0000000000E-09      1.5000000000E+03      hk                    1.0000000000E+00      0.0000000000E+00      1          
geohk02-13            log                   factor                3.0856970000E+01      1.0000000000E-09      1.5000000000E+03      hk                    1.0000000000E+00      0.0000000000E+00      1          
geohk02-14            log                   factor                6.4926130000E+02      1.0000000000E-09      1.5000000000E+03      hk                    1.0000000000E+00      0.0000000000E+00      1          
geohk02-15            log                   factor                7.8554850000E+02      1.0000000000E-09      1.5000000000E+03      hk                    1.0000000000E+00      0.0000000000E+00      1          
geohk02-16            log                   factor                1.5000000000E+02      1.0000000000E-09      1.5000000000E+03      hk                    1.0000000000E+00      0.0000000000E+00      1          
geohk02-17            log                   factor                5.0070780000E+01      1.0000000000E-09      1.5000000000E+03      hk                    1.0000000000E+00      0.0000000000E+00      1          
geohk02-18            log                   factor                1.3056040000E+02      1.0000000000E-09      1.5000000000E+03      hk                    1.0000000000E+00      0.0000000000E+00      1          
geohk02-19            log                   factor                2.3429160000E+02      1.0000000000E-09      1.5000000000E+03      hk                    1.0000000000E+00      0.0000000000E+00      1          
geohk02-20            log                   factor                3.9139700000E+02      1.0000000000E-09      5.0000000000E+03      hk                    1.0000000000E+00      0.0000000000E+00      1          
geohk02-21            log                   factor                5.2284330000E+02      1.0000000000E-09      1.5000000000E+03      hk                    1.0000000000E+00      0.0000000000E+00      1          
geohk02-22            log                   factor                2.5037420000E+01      1.0000000000E-09      1.5000000000E+03      hk                    1.0000000000E+00      0.0000000000E+00      1          
geohk02-23            log                   factor                4.0032500000E+02      1.0000000000E-09      1.5000000000E+03      hk                    1.0000000000E+00      0.0000000000E+00      1          
geohk02-24            log                   factor                2.7882100000E+00      1.0000000000E-09      1.5000000000E+03      hk                    1.0000000000E+00      0.0000000000E+00      1          
geohk02-25            log                   factor                1.5446080200E+01      1.0000000000E-01      1.5000000000E+03      hk                    1.0000000000E+00      0.0000000000E+00      1          
geohk02-26            log                   factor                2.7520840000E+02      1.0000000000E-09      1.5000000000E+03      hk                    1.0000000000E+00      0.0000000000E+00      1          
geohk02-27            log                   factor                2.9669750000E+02      7.0000000000E+00      1.5000000000E+03      hk                    1.0000000000E+00      0.0000000000E+00      1          
geohk02-28            log                   factor                4.0000000000E+02      1.0000000000E-09      6.0000000000E+02      hk                    1.0000000000E+00      0.0000000000E+00      1          
geohk02-29            log                   factor                5.0000000000E+01      1.0000000000E-09      1.5000000000E+03      hk                    1.0000000000E+00      0.0000000000E+00      1          
geohk02-30            log                   factor                4.7960000000E+01      1.0000000000E-09      1.5000000000E+03      hk                    1.0000000000E+00      0.0000000000E+00      1          
geohk03-01            log                   factor                7.3067210000E+02      1.0000000000E-09      1.5000000000E+03      hk                    1.0000000000E+00      0.0000000000E+00      1          
geohk03-02            log                   factor                4.3051310000E+02      1.0000000000E-09      1.5000000000E+03      hk                    1.0000000000E+00      0.0000000000E+00      1          
geohk03-03            log                   factor                5.0000000000E+02      1.0000000000E-09      1.5000000000E+03      hk                    1.0000000000E+00      0.0000000000E+00      1          
geohk03-04            log                   factor                1.1018350000E+02      1.0000000000E-09      1.5000000000E+03      hk                    1.0000000000E+00      0.0000000000E+00      1          
geohk03-05            log                   factor                3.2737220000E+01      1.0000000000E-09      1.5000000000E+03      hk                    1.0000000000E+00      0.0000000000E+00      1          
geohk03-06            log                   factor                6.7622290000E+01      1.0000000000E-09      1.5000000000E+03      hk                    1.0000000000E+00      0.0000000000E+00      1          
geohk03-07            log                   factor                5.0038380000E+02      1.0000000000E-09      1.5000000000E+03      hk                    1.0000000000E+00      0.0000000000E+00      1          
geohk03-08            log                   factor                3.8023370000E+01      1.0000000000E-09      1.5000000000E+03      hk                    1.0000000000E+00      0.0000000000E+00      1          
geohk03-09            log                   factor                5.3336450000E+00      1.0000000000E-09      1.5000000000E+03      hk                    1.0000000000E+00      0.0000000000E+00      1          
geohk03-10            log                   factor                4.7996160000E+02      1.0000000000E-09      1.5000000000E+03      hk                    1.0000000000E+00      0.0000000000E+00      1          
geohk03-11            log                   factor                2.2488710000E+01      1.2000000000E+01      1.5000000000E+03      hk                    1.0000000000E+00      0.0000000000E+00      1          
geohk03-12            log                   factor                2.0305050000E+02      1.0000000000E-09      1.5000000000E+03      hk                    1.0000000000E+00      0.0000000000E+00      1          
geohk03-13            log                   factor                1.0000000000E+02      1.0000000000E-09      1.5000000000E+03      hk                    1.0000000000E+00      0.0000000000E+00      1          
geohk03-14            log                   factor                1.0000000000E+02      1.0000000000E-09      1.0000000000E+02      hk                    1.0000000000E+00      0.0000000000E+00      1          
geohk03-15            log                   factor                1.0000000000E+02      1.0000000000E-09      1.0000000000E+02      hk                    1.0000000000E+00      0.0000000000E+00      1          
geohk03-16            log                   factor                3.2472960000E+02      1.0000000000E-09      5.0000000000E+02      hk                    1.0000000000E+00      0.0000000000E+00      1          
geohk03-17            log                   factor                6.2811280000E+01      1.0000000000E-09      4.0000000000E+02      hk                    1.0000000000E+00      0.0000000000E+00      1          
geohk03-18            log                   factor                6.3098980000E+00      1.0000000000E-09      1.5000000000E+03      hk                    1.0000000000E+00      0.0000000000E+00      1          
geohk03-19            log                   factor                3.0194260000E+02      1.0000000000E-09      1.5000000000E+03      hk                    1.0000000000E+00      0.0000000000E+00      1          
geohk03-20            log                   factor                4.6066180000E+01      1.0000000000E-09      1.5000000000E+03      hk                    1.0000000000E+00      0.0000000000E+00      1          
geohk03-21            log                   factor                6.6498090000E+01      1.0000000000E-09      1.5000000000E+03      hk                    1.0000000000E+00      0.0000000000E+00      1          
geohk03-22            log                   factor                4.9224920000E-01      1.0000000000E-09      4.0000000000E+02      hk                    1.0000000000E+00      0.0000000000E+00      1          
geohk03-23            log                   factor                3.8954710000E-01      1.0000000000E-09      4.0000000000E+02      hk                    1.0000000000E+00      0.0000000000E+00      1          
geohk03-24            log                   factor                5.4288160000E+00      1.0000000000E-09      4.0000000000E+02      hk                    1.0000000000E+00      0.0000000000E+00      1          
geohk03-25            log                   factor                1.3534025000E+00      1.0000000000E-09      4.0000000000E+02      hk                    1.0000000000E+00      0.0000000000E+00      1          
geohk03-26            log                   factor                6.7489960000E-01      1.0000000000E-09      4.0000000000E+02      hk                    1.0000000000E+00      0.0000000000E+00      1          
geohk03-27            log                   factor                3.0385730900E+01      1.0000000000E-09      4.0000000000E+02      hk                    1.0000000000E+00      0.0000000000E+00      1          
geohk03-28            log                   factor                2.5554590000E+00      1.0000000000E-09      4.0000000000E+02      hk                    1.0000000000E+00      0.0000000000E+00      1          
geohk03-29            log                   factor                1.0000000000E+02      1.0000000000E-09      1.0000000000E+02      hk                    1.0000000000E+00      0.0000000000E+00      1          
geohk03-30            log                   factor                9.1748590000E-01      1.0000000000E-09      4.0000000000E+02      hk                    1.0000000000E+00      0.0000000000E+00      1          
geohk03-31            log                   factor                1.0089300000E+00      1.0000000000E-09      4.0000000000E+02      hk                    1.0000000000E+00      0.0000000000E+00      1          
geohk03-32            log                   factor                3.6310210000E+00      1.0000000000E-09      4.0000000000E+02      hk                    1.0000000000E+00      0.0000000000E+00      1          
geohk03-33            log                   factor                1.0214210000E+01      1.0000000000E-09      4.0000000000E+02      hk                    1.0000000000E+00      0.0000000000E+00      1          
geohk03-34            log                   factor                4.0006670000E+01      1.0000000000E-09      4.0000000000E+02      hk                    1.0000000000E+00      0.0000000000E+00      1          
geohk03-35            log                   factor                2.3979090000E+01      7.0000000000E+00      1.5000000000E+03      hk                    1.0000000000E+00      0.0000000000E+00      1          
geohk03-36            log                   factor                4.5809150000E+01      1.0000000000E-09      1.5000000000E+03      hk                    1.0000000000E+00      0.0000000000E+00      1          
geohk03-37            log                   factor                1.1734430000E+01      1.0000000000E-09      1.5000000000E+03      hk                    1.0000000000E+00      0.0000000000E+00      1          
geohk03-38            log                   factor                1.2718600000E+01      1.0000000000E-09      1.5000000000E+03      hk                    1.0000000000E+00      0.0000000000E+00      1          
geohk03-39            log                   factor                7.9378960000E+00      1.0000000000E-09      1.5000000000E+03      hk                    1.0000000000E+00      0.0000000000E+00      1          
geohk03-40            log                   factor                1.0843620000E+02      1.0000000000E-09      1.5000000000E+03      hk                    1.0000000000E+00      0.0000000000E+00      1          
geohk03-41            log                   factor                8.8730280000E+00      1.0000000000E-09      1.5000000000E+03      hk                    1.0000000000E+00      0.0000000000E+00      1          
geohk03-42            log                   factor                6.8074650000E+01      1.0000000000E-09      1.5000000000E+03      hk                    1.0000000000E+00      0.0000000000E+00      1          
geohk03-43            log                   factor                6.1867210000E+02      1.0000000000E-09      5.0000000000E+03      hk                    1.0000000000E+00      0.0000000000E+00      1          
geohk03-44            log                   factor                1.5023818400E+02      1.0000000000E-09      5.0000000000E+03      hk                    1.0000000000E+00      0.0000000000E+00      1          
geohk03-45            log                   factor                2.1497430000E+02      1.0000000000E-09      5.0000000000E+03      hk                    1.0000000000E+00      0.0000000000E+00      1          
geohk03-46            log                   factor                9.6600550000E+01      1.0000000000E-09      1.5000000000E+03      hk                    1.0000000000E+00      0.0000000000E+00      1          
geohk03-47            log                   factor                4.7886440000E+01      1.0000000000E-09      1.5000000000E+03      hk                    1.0000000000E+00      0.0000000000E+00      1          
geohk03-48            log                   factor                1.3651880000E+02      1.0000000000E-09      1.5000000000E+03      hk                    1.0000000000E+00      0.0000000000E+00      1          
geohk03-49            log                   factor                1.1556120000E+00      1.0000000000E-09      1.5000000000E+03      hk                    1.0000000000E+00      0.0000000000E+00      1          
geohk03-50            log                   factor                3.8644100000E+00      1.0000000000E-09      1.0000000000E+02      hk                    1.0000000000E+00      0.0000000000E+00      1          
geohk03-51            log                   factor                4.2904030000E+00      1.0000000000E-09      4.0000000000E+02      hk                    1.0000000000E+00      0.0000000000E+00      1          
geohk03-52            log                   factor                2.0000000000E+00      1.0000000000E-09      4.0000000000E+02      hk                    1.0000000000E+00      0.0000000000E+00      1          
geohk03-53            log                   factor                1.0000000000E+02      1.0000000000E-09      1.0000000000E+02      hk                    1.0000000000E+00      0.0000000000E+00      1          
geohk03-54            log                   factor                1.0000000000E+02      1.0000000000E-09      1.0000000000E+02      hk                    1.0000000000E+00      0.0000000000E+00      1          
geohk03-55            log                   factor                5.3895471000E+00      1.0000000000E-09      4.0000000000E+02      hk                    1.0000000000E+00      0.0000000000E+00      1          
geohk03-56            log                   factor                5.0050500000E+01      1.0000000000E-09      1.5000000000E+03      hk                    1.0000000000E+00      0.0000000000E+00      1          
geohk03-57            log                   factor                1.0000000000E+02      1.0000000000E-09      4.0000000000E+02      hk                    1.0000000000E+00      0.0000000000E+00      1          
geohk04-01            log                   factor                1.5504940000E+02      1.0000000000E-09      4.0000000000E+02      hk                    1.0000000000E+00      0.0000000000E+00      1          
geohk04-02            log                   factor                1.0000000000E+02      1.0000000000E-09      1.0000000000E+02      hk                    1.0000000000E+00      0.0000000000E+00      1          
geohk04-03            log                   factor                9.7584350000E+01      1.0000000000E-09      4.0000000000E+02      hk                    1.0000000000E+00      0.0000000000E+00      1          
geohk04-04            log                   factor                1.0119380000E+01      1.0000000000E-09      4.0000000000E+02      hk                    1.0000000000E+00      0.0000000000E+00      1          
geohk04-05            log                   factor                8.0190330000E+01      1.0000000000E-09      1.0000000000E+02      hk                    1.0000000000E+00      0.0000000000E+00      1          
geohk04-06            log                   factor                4.7255674000E+00      1.0000000000E-09      4.0000000000E+02      hk                    1.0000000000E+00      0.0000000000E+00      1          
geohk04-07            log                   factor                5.8176340000E+00      1.0000000000E-09      4.0000000000E+02      hk                    1.0000000000E+00      0.0000000000E+00      1          
geohk04-08            log                   factor                6.2461160000E+00      1.0000000000E-09      4.0000000000E+02      hk                    1.0000000000E+00      0.0000000000E+00      1          