pcf
* control data
restart regularisation
2710  1455  4  16924  18
3  2  single  point  1  0  0
2.000000e+001  -3.000000e+000  3.000000e-001  1.000000e-002  -10 999 lamforgive
1.000000e+001  1.000000e+001  1.000000e-003
1.000000e-001 1 noaui
0  1.000000e-002  3  3  1.000000e-002  3
0  0  0   PARSAVEITN
* singular value decomposition
1
1715  5.000000e-007
1
* parameter groups
Kp     relative   1.000000e-002  0.000000e+000  switch  2.000000e+000  parabolic
Kz     relative   1.000000e-002  0.000000e+000  switch  2.000000e+000  parabolic
Rech   relative   1.000000e-002  0.000000e+000  switch  2.000000e+000  parabolic
Cond   relative   1.000000e-002  0.000000e+000  switch  2.000000e+000  parabolic
* parameter data
sfrc log factor    1.608665      1.00e-10 1.00e+10 cond 1 0 1
ghbc log factor    42.01676      1.00e-10 1.00e+10 cond 1 0 1
ratio_sgab  fixed  factor    1.000000      1.00e+00  1.00e+10  rech  1  0  1
ratio_sgbc  fixed  factor    1.000000      0.7  1.00e+10  rech  1  0  1
ratio_sgcd  fixed  factor    1.000000      1.00e+00  1.00e+10  rech  1  0  1
rch_mult_sgd  log  factor    1.244211      1.00e-10  1.00e+10  rech  1  0  1
kpkp89_mc1  log  factor    1.000718      1.000000e-10  1.000000e+02  kp  1.0  0.0  1
kpkp90_mc1  log  factor   0.9975884      1.000000e-10  1.000000e+02  kp  1.0  0.0  1
kpkp106_mc1  log  factor    1.002057      1.000000e-10  1.000000e+02  kp  1.0  0.0  1
kpkp107_mc1  log  factor   0.9916540      1.000000e-10  1.000000e+02  kp  1.0  0.0  1
kpkp108_mc1  log  factor   0.9900389      1.000000e-10  1.000000e+02  kp  1.0  0.0  1
kpkp122_mc1  log  factor   0.9184298      1.000000e-10  1.000000e+02  kp  1.0  0.0  1
kpkp123_mc1  log  factor    1.071771      1.000000e-10  1.000000e+02  kp  1.0  0.0  1
kpkp124_mc1  log  factor    1.202746      1.000000e-10  1.000000e+02  kp  1.0  0.0  1
kpkp125_mc1  log  factor   0.8924807      1.000000e-10  1.000000e+02  kp  1.0  0.0  1
kpkp126_mc1  log  factor   0.8581255      1.000000e-10  1.000000e+02  kp  1.0  0.0  1
kpkp139_mc1  log  factor   0.9198321      1.000000e-10  1.000000e+02  kp  1.0  0.0  1
kpkp140_bh1  log  factor    2.948787      1.000000e-10  1.000000e+02  kp  1.0  0.0  1
kpkp141_mc1  log  factor   0.7908416      1.000000e-10  1.000000e+02  kp  1.0  0.0  1
kpkp142_mc1  log  factor   0.8197344      1.000000e-10  1.000000e+02  kp  1.0  0.0  1
kpkp143_br1  log  factor    19.33143      1.000000e-10  1.000000e+02  kp  1.0  0.0  1
kpkp144_br1  log  factor    14.89809      1.000000e-10  1.000000e+02  kp  1.0  0.0  1
kpkp156_mc1  log  factor    1.345705      1.000000e-10  1.000000e+02  kp  1.0  0.0  1
kpkp157_mc1  log  factor    1.288149      1.000000e-10  1.000000e+02  kp  1.0  0.0  1
kpkp158_tn1  log  factor    3.494678      1.000000e-10  1.000000e+02  kp  1.0  0.0  1
kpkp159_br1  log  factor    9.174689      1.000000e-10  1.000000e+02  kp  1.0  0.0  1
kpkp160_br1  log  factor    15.84102      1.000000e-10  1.000000e+02  kp  1.0  0.0  1
kpkp161_br1  log  factor    16.15270      1.000000e-10  1.000000e+02  kp  1.0  0.0  1
kpkp173_mc1  log  factor   0.9827432      1.000000e-10  1.000000e+02  kp  1.0  0.0  1
kpkp174_mc1  log  factor    1.043072      1.000000e-10  1.000000e+02  kp  1.0  0.0  1
kpkp175_tn1  log  factor    16.32091      1.000000e-10  1.000000e+02  kp  1.0  0.0  1
kpkp176_br1  log  factor    15.24723      1.000000e-10  1.000000e+02  kp  1.0  0.0  1
kpkp177_br1  log  factor    16.41916      1.000000e-10  1.000000e+02  kp  1.0  0.0  1
kpkp191_mc1  log  factor    1.005811      1.000000e-10  1.000000e+02  kp  1.0  0.0  1
kpkp192_tn1  log  factor    5.454666      1.000000e-10  1.000000e+02  kp  1.0  0.0  1
kpkp193_br1  log  factor    16.36012      1.000000e-10  1.000000e+02  kp  1.0  0.0  1
kpkp202_ts1  log  factor    16.39687      1.000000e-10  1.000000e+02  kp  1.0  0.0  1
kpkp203_mc1  log  factor   0.9059485      1.000000e-10  1.000000e+02  kp  1.0  0.0  1
kpkp204_br1  log  factor    16.89014      1.000000e-10  1.000000e+02  kp  1.0  0.0  1
kpkp205_mc1  log  factor   0.8174820      1.000000e-10  1.000000e+02  kp  1.0  0.0  1
kpkp206_mc1  log  factor   0.9059190      1.000000e-10  1.000000e+02  kp  1.0  0.0  1
kpkp207_mc1  log  factor   0.9324983      1.000000e-10  1.000000e+02  kp  1.0  0.0  1
kpkp208_tn1  log  factor    4.235912      1.000000e-10  1.000000e+02  kp  1.0  0.0  1
kpkp209_ks1  log  factor    83.32942      1.000000e-10  1.000000e+02  kp  1.0  0.0  1
kpkp217_ts1  log  factor    15.44007      1.000000e-10  1.000000e+02  kp  1.0  0.0  1
kpkp218_ts1  log  factor    10.81028      1.000000e-10  1.000000e+02  kp  1.0  0.0  1
kpkp219_ts1  log  factor    9.047778      1.000000e-10  1.000000e+02  kp  1.0  0.0  1
kpkp220_br1  log  factor    16.93447      1.000000e-10  1.000000e+02  kp  1.0  0.0  1
kpkp221_br1  log  factor    16.55045      1.000000e-10  1.000000e+02  kp  1.0  0.0  1
kpkp222_br1  log  factor    16.95347      1.000000e-10  1.000000e+02  kp  1.0  0.0  1
kpkp223_br1  log  factor    19.64029      1.000000e-10  1.000000e+02  kp  1.0  0.0  1
kpkp224_ks1  log  factor    90.09148      1.000000e-10  1.000000e+02  kp  1.0  0.0  1
kpkp225_ks1  log  factor    79.21634      1.000000e-10  1.000000e+02  kp  1.0  0.0  1
kpkp235_br1  log  factor    21.98683      1.000000e-10  1.000000e+02  kp  1.0  0.0  1
kpkp236_ts1  log  factor    14.55225      1.000000e-10  1.000000e+02  kp  1.0  0.0  1
kpkp237_br1  log  factor    16.87208      1.000000e-10  1.000000e+02  kp  1.0  0.0  1
kpkp238_br1  log  factor    16.49552      1.000000e-10  1.000000e+02  kp  1.0  0.0  1
kpkp239_br1  log  factor    16.44474      1.000000e-10  1.000000e+02  kp  1.0  0.0  1
kpkp240_br1  log  factor    16.53842      1.000000e-10  1.000000e+02  kp  1.0  0.0  1
kpkp253_br1  log  factor    16.51921      1.000000e-10  1.000000e+02  kp  1.0  0.0  1
kpkp255_br1  log  factor    16.93294      1.000000e-10  1.000000e+02  kp  1.0  0.0  1
kpkp256_br1  log  factor    16.40199      1.000000e-10  1.000000e+02  kp  1.0  0.0  1
kpkp162_br1  log  factor    16.47401      1.000000e-10  1.000000e+02  kp  1.0  0.0  1
kpkp178_br1  log  factor    16.91316      1.000000e-10  1.000000e+02  kp  1.0  0.0  1
kpkp179_br1  log  factor    16.55726      1.000000e-10  1.000000e+02  kp  1.0  0.0  1
kpkp194_br1  log  factor    16.41167      1.000000e-10  1.000000e+02  kp  1.0  0.0  1
kpkp195_br1  log  factor    16.26204      1.000000e-10  1.000000e+02  kp  1.0  0.0  1
kpkp196_br1  log  factor    15.93083      1.000000e-10  1.000000e+02  kp  1.0  0.0  1
kpkp210_br1  log  factor    16.00729      1.000000e-10  1.000000e+02  kp  1.0  0.0  1
kpkp211_br1  log  factor    16.42132      1.000000e-10  1.000000e+02  kp  1.0  0.0  1
kpkp212_br1  log  factor    15.87220      1.000000e-10  1.000000e+02  kp  1.0  0.0  1
kpkp226_br1  log  factor    15.40938      1.000000e-10  1.000000e+02  kp  1.0  0.0  1
kpkp227_br1  log  factor    16.17402      1.000000e-10  1.000000e+02  kp  1.0  0.0  1
kpkp228_br1  log  factor    16.35109      1.000000e-10  1.000000e+02  kp  1.0  0.0  1
kpkp241_br1  log  factor    15.93491      1.000000e-10  1.000000e+02  kp  1.0  0.0  1
kpkp242_br1  log  factor    16.54370      1.000000e-10  1.000000e+02  kp  1.0  0.0  1
kpkp243_br1  log  factor    15.80079      1.000000e-10  1.000000e+02  kp  1.0  0.0  1
kpkp180_br1  log  factor    17.23633      1.000000e-10  1.000000e+02  kp  1.0  0.0  1
kpkp197_br1  log  factor    15.65196      1.000000e-10  1.000000e+02  kp  1.0  0.0  1
kpkp198_br1  log  factor    15.96377      1.000000e-10  1.000000e+02  kp  1.0  0.0  1
kpkp213_br1  log  factor    16.74524      1.000000e-10  1.000000e+02  kp  1.0  0.0  1
kpkp214_br1  log  factor    16.69059      1.000000e-10  1.000000e+02  kp  1.0  0.0  1
kpkp215_br1  log  factor    16.35132      1.000000e-10  1.000000e+02  kp  1.0  0.0  1
kpkp216_ts1  log  factor    16.46345      1.000000e-10  1.000000e+02  kp  1.0  0.0  1
kpkp229_br1  log  factor    16.23462      1.000000e-10  1.000000e+02  kp  1.0  0.0  1
kpkp230_br1  log  factor    16.29084      1.000000e-10  1.000000e+02  kp  1.0  0.0  1
kpkp231_ts1  log  factor    15.06307      1.000000e-10  1.000000e+02  kp  1.0  0.0  1
kpkp232_ts1  log  factor    16.13223      1.000000e-10  1.000000e+02  kp  1.0  0.0  1
kpkp233_ts1  log  factor    15.55915      1.000000e-10  1.000000e+02  kp  1.0  0.0  1
kpkp234_ts1  log  factor    17.14675      1.000000e-10  1.000000e+02  kp  1.0  0.0  1
kpkp245_br1  log  factor    16.39215      1.000000e-10  1.000000e+02  kp  1.0  0.0  1
kpkp246_br1  log  factor    16.70634      1.000000e-10  1.000000e+02  kp  1.0  0.0  1
kpkp247_ts1  log  factor    17.75750      1.000000e-10  1.000000e+02  kp  1.0  0.0  1
kpkp248_ts1  log  factor    18.07071      1.000000e-10  1.000000e+02  kp  1.0  0.0  1
kpkp249_ts1  log  factor    14.56566      1.000000e-10  1.000000e+02  kp  1.0  0.0  1
kpkp250_ts1  log  factor    16.02038      1.000000e-10  1.000000e+02  kp  1.0  0.0  1
kpkp251_ts1  log  factor    18.09740      1.000000e-10  1.000000e+02  kp  1.0  0.0  1
kpkp252_ts1  log  factor    17.16798      1.000000e-10  1.000000e+02  kp  1.0  0.0  1
kpkp254_br1  log  factor    16.49493      1.000000e-10  1.000000e+02  kp  1.0  0.0  1
kpkp257_ts1  log  factor    16.35768      1.000000e-10  1.000000e+02  kp  1.0  0.0  1
kpkp258_br1  log  factor    16.41776      1.000000e-10  1.000000e+02  kp  1.0  0.0  1
kpkp259_br1  log  factor    16.47712      1.000000e-10  1.000000e+02  kp  1.0  0.0  1
kpkp260_br1  log  factor    16.49020      1.000000e-10  1.000000e+02  kp  1.0  0.0  1
kpkp261_br1  log  factor    16.34657      1.000000e-10  1.000000e+02  kp  1.0  0.0  1
kpkp262_ts1  log  factor    16.95536      1.000000e-10  1.000000e+02  kp  1.0  0.0  1
kpkp263_ts1  log  factor    16.08879      1.000000e-10  1.000000e+02  kp  1.0  0.0  1
kpkp264_ts1  log  factor    16.53956      1.000000e-10  1.000000e+02  kp  1.0  0.0  1
kpkp265_ts1  log  factor    16.59386      1.000000e-10  1.000000e+02  kp  1.0  0.0  1
kpkp266_ts1  log  factor    17.03917      1.000000e-10  1.000000e+02  kp  1.0  0.0  1
kpkp267_ts1  log  factor    17.64738      1.000000e-10  1.000000e+02  kp  1.0  0.0  1
kpkp268_ts1  log  factor    12.46509      1.000000e-10  1.000000e+02  kp  1.0  0.0  1
kpkp269_ts1  log  factor    15.20766      1.000000e-10  1.000000e+02  kp  1.0  0.0  1
kpkp270_ts1  log  factor    17.23658      1.000000e-10  1.000000e+02  kp  1.0  0.0  1
kpkp271_ts1  log  factor    16.99419      1.000000e-10  1.000000e+02  kp  1.0  0.0  1
kpkp272_ts1  log  factor    16.10679      1.000000e-10  1.000000e+02  kp  1.0  0.0  1
kpkp273_br1  log  factor    16.92805      1.000000e-10  1.000000e+02  kp  1.0  0.0  1
kpkp274_br1  log  factor    16.73394      1.000000e-10  1.000000e+02  kp  1.0  0.0  1
kpkp275_ts1  log  factor    16.51960      1.000000e-10  1.000000e+02  kp  1.0  0.0  1
kpkp276_ts1  log  factor    16.98346      1.000000e-10  1.000000e+02  kp  1.0  0.0  1
kpkp277_ts1  log  factor    17.05822      1.000000e-10  1.000000e+02  kp  1.0  0.0  1
kpkp278_ts1  log  factor    14.94603      1.000000e-10  1.000000e+02  kp  1.0  0.0  1
kpkp279_ts1  log  factor    15.45279      1.000000e-10  1.000000e+02  kp  1.0  0.0  1
kpkp280_ts1  log  factor    15.92709      1.000000e-10  1.000000e+02  kp  1.0  0.0  1
kpkp281_ts1  log  factor    15.62935      1.000000e-10  1.000000e+02  kp  1.0  0.0  1
kpkp282_ts1  log  factor    16.40300      1.000000e-10  1.000000e+02  kp  1.0  0.0  1
kpkp283_ts1  log  factor    14.70259      1.000000e-10  1.000000e+02  kp  1.0  0.0  1
kpkp284_ts1  log  factor    12.80439      1.000000e-10  1.000000e+02  kp  1.0  0.0  1
kpkp285_ts1  log  factor    13.86405      1.000000e-10  1.000000e+02  kp  1.0  0.0  1
kpkp286_ts1  log  factor    16.42709      1.000000e-10  1.000000e+02  kp  1.0  0.0  1
kpkp287_ts1  log  factor    17.02638      1.000000e-10  1.000000e+02  kp  1.0  0.0  1
kpkp288_ts1  log  factor    16.83761      1.000000e-10  1.000000e+02  kp  1.0  0.0  1
kpkp289_ts1  log  factor    16.50819      1.000000e-10  1.000000e+02  kp  1.0  0.0  1
kpkp290_ts1  log  factor    16.44634      1.000000e-10  1.000000e+02  kp  1.0  0.0  1
kpkp291_ts1  log  factor    23.25097      1.000000e-10  1.000000e+02  kp  1.0  0.0  1
kpkp292_ts1  log  factor    21.32373      1.000000e-10  1.000000e+02  kp  1.0  0.0  1
kpkp293_ts1  log  factor    15.17686      1.000000e-10  1.000000e+02  kp  1.0  0.0  1
kpkp294_ts1  log  factor    16.45452      1.000000e-10  1.000000e+02  kp  1.0  0.0  1
kpkp295_ts1  log  factor    16.41506      1.000000e-10  1.000000e+02  kp  1.0  0.0  1
kpkp296_ts1  log  factor    15.33886      1.000000e-10  1.000000e+02  kp  1.0  0.0  1
kpkp297_ts1  log  factor    15.02050      1.000000e-10  1.000000e+02  kp  1.0  0.0  1
kpkp298_ts1  log  factor    14.98997      1.000000e-10  1.000000e+02  kp  1.0  0.0  1
kpkp299_ts1  log  factor    13.98937      1.000000e-10  1.000000e+02  kp  1.0  0.0  1
kpkp300_ts1  log  factor    12.68637      1.000000e-10  1.000000e+02  kp  1.0  0.0  1
kpkp301_ts1  log  factor    16.07610      1.000000e-10  1.000000e+02  kp  1.0  0.0  1
kpkp302_ts1  log  factor    15.00701      1.000000e-10  1.000000e+02  kp  1.0  0.0  1
kpkp303_ts1  log  factor    14.34729      1.000000e-10  1.000000e+02  kp  1.0  0.0  1
kpkp304_ts1  log  factor    17.85721      1.000000e-10  1.000000e+02  kp  1.0  0.0  1
kpkp305_ts1  log  factor    17.33930      1.000000e-10  1.000000e+02  kp  1.0  0.0  1
kpkp306_ts1  log  factor    16.04081      1.000000e-10  1.000000e+02  kp  1.0  0.0  1
kpkp307_ts1  log  factor    16.42633      1.000000e-10  1.000000e+02  kp  1.0  0.0  1
kpkp308_ts1  log  factor    16.10312      1.000000e-10  1.000000e+02  kp  1.0  0.0  1
kpkp309_ts1  log  factor    16.15567      1.000000e-10  1.000000e+02  kp  1.0  0.0  1
kpkp310_ts1  log  factor    17.46057      1.000000e-10  1.000000e+02  kp  1.0  0.0  1
kpkp311_ts1  log  factor    17.30730      1.000000e-10  1.000000e+02  kp  1.0  0.0  1
kpkp312_ts1  log  factor    17.80292      1.000000e-10  1.000000e+02  kp  1.0  0.0  1
kpkp313_ts1  log  factor    14.46570      1.000000e-10  1.000000e+02  kp  1.0  0.0  1
kpkp314_ts1  log  factor    15.21845      1.000000e-10  1.000000e+02  kp  1.0  0.0  1
kpkp315_ts1  log  factor    14.52038      1.000000e-10  1.000000e+02  kp  1.0  0.0  1
kpkp316_ts1  log  factor    16.08080      1.000000e-10  1.000000e+02  kp  1.0  0.0  1
kpkp317_ts1  log  factor    12.46255      1.000000e-10  1.000000e+02  kp  1.0  0.0  1
kpkp318_ts1  log  factor    14.17547      1.000000e-10  1.000000e+02  kp  1.0  0.0  1
kpkp319_ts1  log  factor    14.84135      1.000000e-10  1.000000e+02  kp  1.0  0.0  1
kpkp320_ts1  log  factor    16.54390      1.000000e-10  1.000000e+02  kp  1.0  0.0  1
kpkp321_ts1  log  factor    16.57991      1.000000e-10  1.000000e+02  kp  1.0  0.0  1
kpkp322_ts1  log  factor    16.44141      1.000000e-10  1.000000e+02  kp  1.0  0.0  1
kpkp323_ts1  log  factor    16.61018      1.000000e-10  1.000000e+02  kp  1.0  0.0  1
kpkp324_ts1  log  factor    16.33863      1.000000e-10  1.000000e+02  kp  1.0  0.0  1
kpkp1_bf1  log  factor    11.48047      1.000000e-10  1.000000e+02  kp  1.0  0.0  1
kpkp2_mc1  log  factor   0.8535801      1.000000e-10  1.000000e+02  kp  1.0  0.0  1
kpkp3_mc1  log  factor   0.9930087      1.000000e-10  1.000000e+02  kp  1.0  0.0  1
kpkp4_mc1  log  factor   0.9766646      1.000000e-10  1.000000e+02  kp  1.0  0.0  1
kpkp5_mc1  tied  factor   0.9766646      1.000000e-10  1.000000e+02  kp  1.0  0.0  1
kpkp6_mc1  tied  factor   0.9766646      1.000000e-10  1.000000e+02  kp  1.0  0.0  1
kpkp7_mc1  tied  factor    1.062598      1.000000e-10  1.000000e+02  kp  1.0  0.0  1
kpkp8_mc1  tied  factor    1.018444      1.000000e-10  1.000000e+02  kp  1.0  0.0  1
kpkp9_mc1  tied  factor   0.9878082      1.000000e-10  1.000000e+02  kp  1.0  0.0  1
kpkp10_mc1  tied  factor   0.9878082      1.000000e-10  1.000000e+02  kp  1.0  0.0  1
kpkp11_mc1  tied  factor   0.9878082      1.000000e-10  1.000000e+02  kp  1.0  0.0  1
kpkp12_mc1  tied  factor   0.9878082      1.000000e-10  1.000000e+02  kp  1.0  0.0  1
kpkp13_mc1  tied  factor    1.026467      1.000000e-10  1.000000e+02  kp  1.0  0.0  1
kpkp14_mc1  tied  factor    1.026467      1.000000e-10  1.000000e+02  kp  1.0  0.0  1
kpkp15_mc1  tied  factor   0.9989682      1.000000e-10  1.000000e+02  kp  1.0  0.0  1
kpkp16_mc1  tied  factor   0.9968561      1.000000e-10  1.000000e+02  kp  1.0  0.0  1
kpkp17_mc1  tied  factor   0.9968561      1.000000e-10  1.000000e+02  kp  1.0  0.0  1
kpkp18_mc1  tied  factor   0.9968561      1.000000e-10  1.000000e+02  kp  1.0  0.0  1
kpkp19_bf1  log  factor    25.33616      1.000000e-10  1.000000e+02  kp  1.0  0.0  1
kpkp20_mc1  log  factor   0.8035129      1.000000e-10  1.000000e+02  kp  1.0  0.0  1
kpkp21_mc1  log  factor   0.9996453      1.000000e-10  1.000000e+02  kp  1.0  0.0  1
kpkp22_mc1  log  factor   0.8026179      1.000000e-10  1.000000e+02  kp  1.0  0.0  1
kpkp23_mc1  tied  factor   0.8026179      1.000000e-10  1.000000e+02  kp  1.0  0.0  1
kpkp24_mc1  tied  factor    1.062598      1.000000e-10  1.000000e+02  kp  1.0  0.0  1
kpkp25_mc1  tied  factor    1.062598      1.000000e-10  1.000000e+02  kp  1.0  0.0  1
kpkp26_mc1  tied  factor    1.018444      1.000000e-10  1.000000e+02  kp  1.0  0.0  1
kpkp27_mc1  tied  factor   0.9878082      1.000000e-10  1.000000e+02  kp  1.0  0.0  1
kpkp28_mc1  tied  factor   0.9878082      1.000000e-10  1.000000e+02  kp  1.0  0.0  1
kpkp29_mc1  tied  factor   0.9878082      1.000000e-10  1.000000e+02  kp  1.0  0.0  1
kpkp30_mc1  tied  factor    1.030777      1.000000e-10  1.000000e+02  kp  1.0  0.0  1
kpkp31_mc1  tied  factor    1.026467      1.000000e-10  1.000000e+02  kp  1.0  0.0  1
kpkp32_mc1  tied  factor    1.026467      1.000000e-10  1.000000e+02  kp  1.0  0.0  1
kpkp33_mc1  tied  factor   0.9989682      1.000000e-10  1.000000e+02  kp  1.0  0.0  1
kpkp34_mc1  tied  factor   0.9968561      1.000000e-10  1.000000e+02  kp  1.0  0.0  1
kpkp35_mc1  tied  factor   0.9968561      1.000000e-10  1.000000e+02  kp  1.0  0.0  1
kpkp36_mc1  tied  factor   0.9968561      1.000000e-10  1.000000e+02  kp  1.0  0.0  1
kpkp37_mc1  log  factor    1.001544      1.000000e-10  1.000000e+02  kp  1.0  0.0  1
kpkp38_mc1  log  factor    1.024064      1.000000e-10  1.000000e+02  kp  1.0  0.0  1
kpkp39_mc1  log  factor   0.9817683      1.000000e-10  1.000000e+02  kp  1.0  0.0  1
kpkp40_mc1  tied  factor   0.8026179      1.000000e-10  1.000000e+02  kp  1.0  0.0  1
kpkp41_mc1  tied  factor   0.8026179      1.000000e-10  1.000000e+02  kp  1.0  0.0  1
kpkp42_mc1  tied  factor    1.062598      1.000000e-10  1.000000e+02  kp  1.0  0.0  1
kpkp43_mc1  log  factor    1.062598      1.000000e-10  1.000000e+02  kp  1.0  0.0  1
kpkp44_mc1  log  factor    1.018444      1.000000e-10  1.000000e+02  kp  1.0  0.0  1
kpkp45_mc1  log  factor   0.9878082      1.000000e-10  1.000000e+02  kp  1.0  0.0  1
kpkp46_mc1  tied  factor   0.9878082      1.000000e-10  1.000000e+02  kp  1.0  0.0  1
kpkp47_mc1  tied  factor    1.030777      1.000000e-10  1.000000e+02  kp  1.0  0.0  1
kpkp48_mc1  tied  factor    1.062332      1.000000e-10  1.000000e+02  kp  1.0  0.0  1
kpkp49_mc1  tied  factor    1.026467      1.000000e-10  1.000000e+02  kp  1.0  0.0  1
kpkp50_mc1  tied  factor    1.026467      1.000000e-10  1.000000e+02  kp  1.0  0.0  1
kpkp51_mc1  tied  factor   0.9989682      1.000000e-10  1.000000e+02  kp  1.0  0.0  1
kpkp52_mc1  tied  factor   0.9989682      1.000000e-10  1.000000e+02  kp  1.0  0.0  1
kpkp53_mc1  tied  factor   0.9968561      1.000000e-10  1.000000e+02  kp  1.0  0.0  1
kpkp54_mc1  tied  factor   0.9968561      1.000000e-10  1.000000e+02  kp  1.0  0.0  1
kpkp55_mc1  log  factor   0.9996002      1.000000e-10  1.000000e+02  kp  1.0  0.0  1
kpkp56_mc1  log  factor   0.9978203      1.000000e-10  1.000000e+02  kp  1.0  0.0  1
kpkp57_mc1  log  factor    1.013462      1.000000e-10  1.000000e+02  kp  1.0  0.0  1
kpkp58_mc1  tied  factor    1.013462      1.000000e-10  1.000000e+02  kp  1.0  0.0  1
kpkp59_mc1  tied  factor    1.201463      1.000000e-10  1.000000e+02  kp  1.0  0.0  1
kpkp60_mc1  log  factor    1.201463      1.000000e-10  1.000000e+02  kp  1.0  0.0  1
kpkp61_mc1  log  factor    1.095290      1.000000e-10  1.000000e+02  kp  1.0  0.0  1
kpkp62_mc1  log  factor    1.055305      1.000000e-10  1.000000e+02  kp  1.0  0.0  1
kpkp63_mc1  log  factor    1.012071      1.000000e-10  1.000000e+02  kp  1.0  0.0  1
kpkp64_mc1  log  factor    1.030777      1.000000e-10  1.000000e+02  kp  1.0  0.0  1
kpkp65_mc1  tied  factor    1.030777      1.000000e-10  1.000000e+02  kp  1.0  0.0  1
kpkp66_mc1  tied  factor    1.062332      1.000000e-10  1.000000e+02  kp  1.0  0.0  1
kpkp67_mc1  tied  factor    1.026467      1.000000e-10  1.000000e+02  kp  1.0  0.0  1
kpkp68_mc1  tied  factor    1.026467      1.000000e-10  1.000000e+02  kp  1.0  0.0  1
kpkp69_mc1  tied  factor   0.9989682      1.000000e-10  1.000000e+02  kp  1.0  0.0  1
kpkp70_mc1  tied  factor   0.9989682      1.000000e-10  1.000000e+02  kp  1.0  0.0  1
kpkp71_mc1  tied  factor   0.9968561      1.000000e-10  1.000000e+02  kp  1.0  0.0  1
kpkp72_mc1  log  factor   0.9968561      1.000000e-10  1.000000e+02  kp  1.0  0.0  1
kpkp73_mc1  log  factor   0.9772671      1.000000e-10  1.000000e+02  kp  1.0  0.0  1
kpkp74_mc1  log  factor    1.024465      1.000000e-10  1.000000e+02  kp  1.0  0.0  1
kpkp75_mc1  log  factor    1.069788      1.000000e-10  1.000000e+02  kp  1.0  0.0  1
kpkp76_mc1  log  factor    1.112358      1.000000e-10  1.000000e+02  kp  1.0  0.0  1
kpkp77_mc1  log  factor    1.048252      1.000000e-10  1.000000e+02  kp  1.0  0.0  1
kpkp78_mc1  log  factor    1.287194      1.000000e-10  1.000000e+02  kp  1.0  0.0  1
kpkp79_mc1  log  factor    1.252568      1.000000e-10  1.000000e+02  kp  1.0  0.0  1
kpkp80_mc1  log  factor    1.031066      1.000000e-10  1.000000e+02  kp  1.0  0.0  1
kpkp81_mc1  log  factor    1.081590      1.000000e-10  1.000000e+02  kp  1.0  0.0  1
kpkp82_mc1  log  factor    1.166718      1.000000e-10  1.000000e+02  kp  1.0  0.0  1
kpkp83_mc1  log  factor    1.145793      1.000000e-10  1.000000e+02  kp  1.0  0.0  1
kpkp84_mc1  log  factor    1.062332      1.000000e-10  1.000000e+02  kp  1.0  0.0  1
kpkp85_mc1  log  factor    1.026467      1.000000e-10  1.000000e+02  kp  1.0  0.0  1
kpkp86_mc1  tied  factor    1.041911      1.000000e-10  1.000000e+02  kp  1.0  0.0  1
kpkp87_mc1  tied  factor    1.004840      1.000000e-10  1.000000e+02  kp  1.0  0.0  1
kpkp88_mc1  log  factor   0.9989682      1.000000e-10  1.000000e+02  kp  1.0  0.0  1
kpkp91_mc1  log  factor   0.9962715      1.000000e-10  1.000000e+02  kp  1.0  0.0  1
kpkp92_mc1  log  factor   0.9893807      1.000000e-10  1.000000e+02  kp  1.0  0.0  1
kpkp93_mc1  log  factor    1.054770      1.000000e-10  1.000000e+02  kp  1.0  0.0  1
kpkp94_mc1  log  factor    1.010916      1.000000e-10  1.000000e+02  kp  1.0  0.0  1
kpkp95_mc1  log  factor    1.027398      1.000000e-10  1.000000e+02  kp  1.0  0.0  1
kpkp96_mc1  log  factor    1.122329      1.000000e-10  1.000000e+02  kp  1.0  0.0  1
kpkp97_mc1  log  factor   0.9907358      1.000000e-10  1.000000e+02  kp  1.0  0.0  1
kpkp98_mc1  log  factor   0.9878954      1.000000e-10  1.000000e+02  kp  1.0  0.0  1
kpkp99_mc1  log  factor    1.129044      1.000000e-10  1.000000e+02  kp  1.0  0.0  1
kpkp100_mc1  log  factor    1.008248      1.000000e-10  1.000000e+02  kp  1.0  0.0  1
kpkp101_mc1  log  factor    1.030282      1.000000e-10  1.000000e+02  kp  1.0  0.0  1
kpkp102_mc1  log  factor    1.029388      1.000000e-10  1.000000e+02  kp  1.0  0.0  1
kpkp103_mc1  log  factor   0.9742521      1.000000e-10  1.000000e+02  kp  1.0  0.0  1
kpkp104_mc1  log  factor    1.041911      1.000000e-10  1.000000e+02  kp  1.0  0.0  1
kpkp105_mc1  log  factor    1.004840      1.000000e-10  1.000000e+02  kp  1.0  0.0  1
kpkp109_mc1  log  factor    1.036270      1.000000e-10  1.000000e+02  kp  1.0  0.0  1
kpkp110_mc1  log  factor   0.9464648      1.000000e-10  1.000000e+02  kp  1.0  0.0  1
kpkp111_mc1  log  factor   0.9619158      1.000000e-10  1.000000e+02  kp  1.0  0.0  1
kpkp112_mc1  log  factor    1.008607      1.000000e-10  1.000000e+02  kp  1.0  0.0  1
kpkp113_mc1  log  factor    1.018930      1.000000e-10  1.000000e+02  kp  1.0  0.0  1
kpkp114_mc1  log  factor   0.9825691      1.000000e-10  1.000000e+02  kp  1.0  0.0  1
kpkp115_mc1  log  factor   0.9441351      1.000000e-10  1.000000e+02  kp  1.0  0.0  1
kpkp116_mc1  log  factor   0.9822550      1.000000e-10  1.000000e+02  kp  1.0  0.0  1
kpkp117_mc1  log  factor    1.022574      1.000000e-10  1.000000e+02  kp  1.0  0.0  1
kpkp118_mc1  log  factor   0.9966105      1.000000e-10  1.000000e+02  kp  1.0  0.0  1
kpkp119_mc1  log  factor   0.9589565      1.000000e-10  1.000000e+02  kp  1.0  0.0  1
kpkp120_bh1  log  factor    58.24597      1.000000e-10  1.000000e+02  kp  1.0  0.0  1
kpkp121_bh1  log  factor    94.57007      1.000000e-10  1.000000e+02  kp  1.0  0.0  1
kpkp127_mc1  log  factor    1.037644      1.000000e-10  1.000000e+02  kp  1.0  0.0  1
kpkp128_mc1  log  factor    1.006375      1.000000e-10  1.000000e+02  kp  1.0  0.0  1
kpkp129_mc1  log  factor   0.9766280      1.000000e-10  1.000000e+02  kp  1.0  0.0  1
kpkp130_mc1  log  factor    1.002676      1.000000e-10  1.000000e+02  kp  1.0  0.0  1
kpkp131_mc1  log  factor    1.029708      1.000000e-10  1.000000e+02  kp  1.0  0.0  1
kpkp132_mc1  log  factor   0.8975537      1.000000e-10  1.000000e+02  kp  1.0  0.0  1
kpkp133_mc1  log  factor   0.8878151      1.000000e-10  1.000000e+02  kp  1.0  0.0  1
kpkp134_mc1  log  factor   0.9884371      1.000000e-10  1.000000e+02  kp  1.0  0.0  1
kpkp135_mc1  log  factor   0.9922538      1.000000e-10  1.000000e+02  kp  1.0  0.0  1
kpkp136_mc1  log  factor   0.9877476      1.000000e-10  1.000000e+02  kp  1.0  0.0  1
kpkp137_mc1  log  factor    1.051336      1.000000e-10  1.000000e+02  kp  1.0  0.0  1
kpkp138_mc1  log  factor    1.141110      1.000000e-10  1.000000e+02  kp  1.0  0.0  1
kpkp145_mc1  log  factor    1.020233      1.000000e-10  1.000000e+02  kp  1.0  0.0  1
kpkp146_mc1  log  factor   0.9946162      1.000000e-10  1.000000e+02  kp  1.0  0.0  1
kpkp147_mc1  log  factor    1.018730      1.000000e-10  1.000000e+02  kp  1.0  0.0  1
kpkp148_mc1  log  factor   0.9783473      1.000000e-10  1.000000e+02  kp  1.0  0.0  1
kpkp149_mc1  log  factor    1.017234      1.000000e-10  1.000000e+02  kp  1.0  0.0  1
kpkp150_mc1  log  factor   0.9216872      1.000000e-10  1.000000e+02  kp  1.0  0.0  1
kpkp151_mc1  log  factor   0.9294656      1.000000e-10  1.000000e+02  kp  1.0  0.0  1
kpkp152_mc1  log  factor   0.9810006      1.000000e-10  1.000000e+02  kp  1.0  0.0  1
kpkp153_mc1  log  factor    1.099071      1.000000e-10  1.000000e+02  kp  1.0  0.0  1
kpkp154_mc1  log  factor   0.9776932      1.000000e-10  1.000000e+02  kp  1.0  0.0  1
kpkp155_mc1  log  factor   0.9477351      1.000000e-10  1.000000e+02  kp  1.0  0.0  1
kpkp163_mc1  log  factor    1.017998      1.000000e-10  1.000000e+02  kp  1.0  0.0  1
kpkp164_mc1  log  factor    1.006959      1.000000e-10  1.000000e+02  kp  1.0  0.0  1
kpkp165_mc1  log  factor    1.013975      1.000000e-10  1.000000e+02  kp  1.0  0.0  1
kpkp166_mc1  log  factor    1.089928      1.000000e-10  1.000000e+02  kp  1.0  0.0  1
kpkp167_mc1  log  factor   0.9555494      1.000000e-10  1.000000e+02  kp  1.0  0.0  1
kpkp168_mc1  log  factor    1.009702      1.000000e-10  1.000000e+02  kp  1.0  0.0  1
kpkp169_mc1  log  factor   0.9416402      1.000000e-10  1.000000e+02  kp  1.0  0.0  1
kpkp170_mc1  log  factor    1.009013      1.000000e-10  1.000000e+02  kp  1.0  0.0  1
kpkp171_mc1  log  factor   0.9351579      1.000000e-10  1.000000e+02  kp  1.0  0.0  1
kpkp172_mc1  log  factor   0.9850490      1.000000e-10  1.000000e+02  kp  1.0  0.0  1
kpkp181_mc1  log  factor    1.007963      1.000000e-10  1.000000e+02  kp  1.0  0.0  1
kpkp182_mc1  log  factor    1.083766      1.000000e-10  1.000000e+02  kp  1.0  0.0  1
kpkp183_mc1  log  factor    1.000957      1.000000e-10  1.000000e+02  kp  1.0  0.0  1
kpkp184_mc1  log  factor   0.9277078      1.000000e-10  1.000000e+02  kp  1.0  0.0  1
kpkp185_mc1  log  factor   0.8582283      1.000000e-10  1.000000e+02  kp  1.0  0.0  1
kpkp186_mc1  log  factor   0.8399182      1.000000e-10  1.000000e+02  kp  1.0  0.0  1
kpkp187_mc1  log  factor   0.8320324      1.000000e-10  1.000000e+02  kp  1.0  0.0  1
kpkp188_mc1  log  factor   0.7802752      1.000000e-10  1.000000e+02  kp  1.0  0.0  1
kpkp189_mc1  log  factor   0.8609696      1.000000e-10  1.000000e+02  kp  1.0  0.0  1
kpkp190_mc1  log  factor   0.9991195      1.000000e-10  1.000000e+02  kp  1.0  0.0  1
kpkp199_mc1  log  factor   0.8635794      1.000000e-10  1.000000e+02  kp  1.0  0.0  1
kpkp200_ts1  log  factor    12.46041      1.000000e-10  1.000000e+02  kp  1.0  0.0  1
kpkp201_mc1  log  factor   0.8789897      1.000000e-10  1.000000e+02  kp  1.0  0.0  1
kpkp89_ss3  log  factor    2.500143      1.000000e-10  1.000000e+02  kp  1.0  0.0  1
kpkp90_vl3  log  factor    3.900580      1.000000e-10  1.000000e+02  kp  1.0  0.0  1
kpkp106_ss3  log  factor    2.467765      1.000000e-10  1.000000e+02  kp  1.0  0.0  1
kpkp107_vl3  log  factor    3.310471      1.000000e-10  1.000000e+02  kp  1.0  0.0  1
kpkp108_vl3  log  factor    3.879249      1.000000e-10  1.000000e+02  kp  1.0  0.0  1
kpkp122_ss3  log  factor    2.587659      1.000000e-10  1.000000e+02  kp  1.0  0.0  1
kpkp123_ss3  log  factor    2.411855      1.000000e-10  1.000000e+02  kp  1.0  0.0  1
kpkp124_vl3  log  factor    2.606622      1.000000e-10  1.000000e+02  kp  1.0  0.0  1
kpkp125_vl3  log  factor    2.749341      1.000000e-10  1.000000e+02  kp  1.0  0.0  1