pcf
* control data
             restart          estimation
        50        10         1         0         1         0
         1         1              single               point         1         0         0          noobsreref
   2.000000E+01  -3.000000E+00   3.000000E-01   1.000000E-02        -7       999          lamforgive        noderforgive
   1.000000E+01   1.000000E+01   1.000000E-03         0         0
   1.000000E-01         1   1.100000E+00               noaui          nosenreuse        noboundscale
         0   1.000000E-02         3         3   1.000000E-02         3   0.000000E+00         1  -1.000000E+00
         0         0         0         0             jcosave          verboserec          jcosaveitn          reisaveitn          parsaveitn        noparsaverun
* singular value decomposition
         1
  10000000    1.000000E-06
1
* parameter groups
pargp                   relative              1.0000000000E-02       0.0  switch                2.0000000000E+00       parabolic             1.0000000000E-05      5.0000000000E-01       smaller
* parameter data
par_0                  log                    factor                1.0000000000E+00      1.1000000000E-10      1.1000000000E+10       pargp                 1.0000000000E+00      0.0000000000E+00      1          
par_1                  log                    factor                1.0000000000E+00      1.1000000000E-10      1.1000000000E+10       pargp                 1.0000000000E+00      0.0000000000E+00      1          
par_10                 log                    factor                1.0000000000E+00      1.1000000000E-10      1.1000000000E+10       pargp                 1.0000000000E+00      0.0000000000E+00      1          
par_11                 log                    factor                1.0000000000E+00      1.1000000000E-10      1.1000000000E+10       pargp                 1.0000000000E+00      0.0000000000E+00      1          
par_12                 log                    factor                1.0000000000E+00      1.1000000000E-10      1.1000000000E+10       pargp                 1.0000000000E+00      0.0000000000E+00      1          
par_13                 log                    factor                1.0000000000E+00      1.1000000000E-10      1.1000000000E+10       pargp                 1.0000000000E+00      0.0000000000E+00      1          
par_14                 log                    factor                1.0000000000E+00      1.1000000000E-10      1.1000000000E+10       pargp                 1.0000000000E+00      0.0000000000E+00      1          
par_15                 log                    factor                1.0000000000E+00      1.1000000000E-10      1.1000000000E+10       pargp                 1.0000000000E+00      0.0000000000E+00      1          
par_16                 log                    factor                1.0000000000E+00      1.1000000000E-10      1.1000000000E+10       pargp                 1.0000000000E+00      0.0000000000E+00      1          
par_17                 log                    factor                1.0000000000E+00      1.1000000000E-10      1.1000000000E+10       pargp                 1.0000000000E+00      0.0000000000E+00      1          
par_18                 log                    factor                1.0000000000E+00      1.1000000000E-10      1.1000000000E+10       pargp                 1.0000000000E+00      0.0000000000E+00      1          
par_19                 log                    factor                1.0000000000E+00      1.1000000000E-10      1.1000000000E+10       pargp                 1.0000000000E+00      0.0000000000E+00      1          
par_2                  log                    factor                1.0000000000E+00      1.1000000000E-10      1.1000000000E+10       pargp                 1.0000000000E+00      0.0000000000E+00      1          
par_20                 log                    factor                1.0000000000E+00      1.1000000000E-10      1.1000000000E+10       pargp                 1.0000000000E+00      0.0000000000E+00      1          
par_21                 log                    factor                1.0000000000E+00      1.1000000000E-10      1.1000000000E+10       pargp                 1.0000000000E+00      0.0000000000E+00      1          
par_22                 log                    factor                1.0000000000E+00      1.1000000000E-10      1.1000000000E+10       pargp                 1.0000000000E+00      0.0000000000E+00      1          
par_23                 log                    factor                1.0000000000E+00      1.1000000000E-10      1.1000000000E+10       pargp                 1.0000000000E+00      0.0000000000E+00      1          
par_24                 log                    factor                1.0000000000E+00      1.1000000000E-10      1.1000000000E+10       pargp                 1.0000000000E+00      0.0000000000E+00      1          
par_25                 log                    factor                1.0000000000E+00      1.1000000000E-10      1.1000000000E+10       pargp                 1.0000000000E+00      0.0000000000E+00      1          
par_26                 log                    factor                1.0000000000E+00      1.1000000000E-10      1.1000000000E+10       pargp                 1.0000000000E+00      0.0000000000E+00      1          
par_27                 log                    factor                1.0000000000E+00      1.1000000000E-10      1.1000000000E+10       pargp                 1.0000000000E+00      0.0000000000E+00      1          
par_28                 log                    factor                1.0000000000E+00      1.1000000000E-10      1.1000000000E+10       pargp                 1.0000000000E+00      0.0000000000E+00      1          
par_29                 log                    factor                1.0000000000E+00      1.1000000000E-10      1.1000000000E+10       pargp                 1.0000000000E+00      0.0000000000E+00      1          
par_3                  log                    factor                1.0000000000E+00      1.1000000000E-10      1.1000000000E+10       pargp                 1.0000000000E+00      0.0000000000E+00      1          
par_30                 log                    factor                1.0000000000E+00      1.1000000000E-10      1.1000000000E+10       pargp                 1.0000000000E+00      0.0000000000E+00      1          
par_31                 log                    factor                1.0000000000E+00      1.1000000000E-10      1.1000000000E+10       pargp                 1.0000000000E+00      0.0000000000E+00      1          
par_32                 log                    factor                1.0000000000E+00      1.1000000000E-10      1.1000000000E+10       pargp                 1.0000000000E+00      0.0000000000E+00      1          
par_33                 log                    factor                1.0000000000E+00      1.1000000000E-10      1.1000000000E+10       pargp                 1.0000000000E+00      0.0000000000E+00      1          
par_34                 log                    factor                1.0000000000E+00      1.1000000000E-10      1.1000000000E+10       pargp                 1.0000000000E+00      0.0000000000E+00      1          
par_35                 log                    factor                1.0000000000E+00      1.1000000000E-10      1.1000000000E+10       pargp                 1.0000000000E+00      0.0000000000E+00      1          
par_36                 log                    factor                1.0000000000E+00      1.1000000000E-10      1.1000000000E+10       pargp                 1.0000000000E+00      0.0000000000E+00      1          
par_37                 log                    factor                1.0000000000E+00      1.1000000000E-10      1.1000000000E+10       pargp                 1.0000000000E+00      0.0000000000E+00      1          
par_38                 log                    factor                1.0000000000E+00      1.1000000000E-10      1.1000000000E+10       pargp                 1.0000000000E+00      0.0000000000E+00      1          
par_39                 log                    factor                1.0000000000E+00      1.1000000000E-10      1.1000000000E+10       pargp                 1.0000000000E+00      0.0000000000E+00      1          
par_4                  log                    factor                1.0000000000E+00      1.1000000000E-10      1.1000000000E+10       pargp                 1.0000000000E+00      0.0000000000E+00      1          
par_40                 log                    factor                1.0000000000E+00      1.1000000000E-10      1.1000000000E+10       pargp                 1.0000000000E+00      0.0000000000E+00      1          
par_41                 log                    factor                1.0000000000E+00      1.1000000000E-10      1.1000000000E+10       pargp                 1.0000000000E+00      0.0000000000E+00      1          
par_42                 log                    factor                1.0000000000E+00      1.1000000000E-10      1.1000000000E+10       pargp                 1.0000000000E+00      0.0000000000E+00      1          
par_43                 log                    factor                1.0000000000E+00      1.1000000000E-10      1.1000000000E+10       pargp                 1.0000000000E+00      0.0000000000E+00      1          
par_44                 log                    factor                1.0000000000E+00      1.1000000000E-10      1.1000000000E+10       pargp                 1.0000000000E+00      0.0000000000E+00      1          
par_45                 log                    factor                1.0000000000E+00      1.1000000000E-10      1.1000000000E+10       pargp                 1.0000000000E+00      0.0000000000E+00      1          
par_46                 log                    factor                1.0000000000E+00      1.1000000000E-10      1.1000000000E+10       pargp                 1.0000000000E+00      0.0000000000E+00      1          
par_47                 log                    factor                1.0000000000E+00      1.1000000000E-10      1.1000000000E+10       pargp                 1.0000000000E+00      0.0000000000E+00      1          
par_48                 log                    factor                1.0000000000E+00      1.1000000000E-10      1.1000000000E+10       pargp                 1.0000000000E+00      0.0000000000E+00      1          
par_49                 log                    factor                1.0000000000E+00      1.1000000000E-10      1.1000000000E+10       pargp                 1.0000000000E+00      0.0000000000E+00      1          
par_5                  log                    factor                1.0000000000E+00      1.1000000000E-10      1.1000000000E+10       pargp                 1.0000000000E+00      0.0000000000E+00      1          
par_6                  log                    factor                1.0000000000E+00      1.1000000000E-10      1.1000000000E+10       pargp                 1.0000000000E+00      0.0000000000E+00      1          
par_7                  log                    factor                1.0000000000E+00      1.1000000000E-10      1.1000000000E+10       pargp                 1.0000000000E+00      0.0000000000E+00      1          
par_8                  log                    factor                1.0000000000E+00      1.1000000000E-10      1.1000000000E+10       pargp                 1.0000000000E+00      0.0000000000E+00      1          
par_9                  log                    factor                1.0000000000E+00      1.1000000000E-10      1.1000000000E+10       pargp                 1.0000000000E+00      0.0000000000E+00      1
* observation groups
obgnme               
* observation data
obs_0                 -7.7111735779E-01     1.0000000000E+01       obgnme               
obs_1                 -2.9944603744E-01     1.0000000000E+01       obgnme               
obs_2                 9.8371856366E-01      1.0000000000E+01       obgnme               
obs_3                 9.8457227126E-01      1.0000000000E+01       obgnme               
obs_4                 -2.6541788156E-01     1.0000000000E+01       obgnme               
obs_5                 -7.9036383776E-02     1.0000000000E+01       obgnme               
obs_6                 -6.9173996943E-01     1.0000000000E+01       obgnme               
obs_7                 -5.3202727483E-01     1.0000000000E+01       obgnme               
obs_8                 -8.5137185528E-01     1.0000000000E+01       obgnme               
obs_9                 1.4905435465E-01      1.0000000000E+01       obgnme
* model command line
D:\anaconda\envs\py37\python.exe forward_run.py
* model input/output
tplfile.tpl input.dat
insfile.ins output.dat
++sweep_parameter_csv_file(sweep_in.csv)
