ptf ~
# RIV for MODFLOW, generated by Flopy.
        40         0
        40         0 # stress period 0
         1         1        15 20.100000 ~rcond00~ 20.000000  0.000000
         1         2        15 19.870001 ~rcond01~ 19.750000  0.000000
         1         3        15 19.650000 ~rcond02~ 19.500000  0.000000
         1         4        15 19.420000 ~rcond03~ 19.250000  0.000000
         1         5        15 19.190001 ~rcond04~ 19.000000  0.000000
         1         6        15 18.969999 ~rcond05~ 18.750000  0.000000
         1         7        15 18.740000 ~rcond06~ 18.500000  0.000000
         1         8        15 18.510000 ~rcond07~ 18.250000  0.000000
         1         9        15 18.280001 ~rcond08~ 18.000000  0.000000
         1        10        15 19.059999 ~rcond09~ 17.750000  0.000000
         1        11        15 17.830000 ~rcond10~ 17.500000  0.000000
         1        12        15 17.600000 ~rcond11~ 17.250000  0.000000
         1        13        15 17.379999 ~rcond12~ 17.000000  0.000000
         1        14        15 17.150000 ~rcond13~ 16.750000  0.000000
         1        15        15 16.920000 ~rcond14~ 16.500000  0.000000
         1        16        15 16.700001 ~rcond15~ 16.250000  0.000000
         1        17        15 16.469999 ~rcond16~ 16.000000  0.000000
         1        18        15 16.240000 ~rcond17~ 15.750000  0.000000
         1        19        15 16.020000 ~rcond18~ 15.500000  0.000000
         1        20        15 15.790000 ~rcond19~ 15.250000  0.000000
         1        21        15 15.560000 ~rcond20~ 15.000000  0.000000
         1        22        15 15.330000 ~rcond21~ 14.750000  0.000000
         1        23        15 15.110000 ~rcond22~ 14.500000  0.000000
         1        24        15 14.880000 ~rcond23~ 14.250000  0.000000
         1        25        15 14.650000 ~rcond24~ 14.000000  0.000000
         1        26        15 14.430000 ~rcond25~ 13.750000  0.000000
         1        27        15 14.200000 ~rcond26~ 13.500000  0.000000
         1        28        15 13.970000 ~rcond27~ 13.250000  0.000000
         1        29        15 13.750000 ~rcond28~ 13.000000  0.000000
         1        30        15 13.520000 ~rcond29~ 12.750000  0.000000
         1        31        15 13.290000 ~rcond30~ 12.500000  0.000000
         1        32        15 13.070000 ~rcond31~ 12.250000  0.000000
         1        33        15 12.840000 ~rcond32~ 12.000000  0.000000
         1        34        15 12.610000 ~rcond33~ 11.750000  0.000000
         1        35        15 12.380000 ~rcond34~ 11.500000  0.000000
         1        36        15 12.160000 ~rcond35~ 11.250000  0.000000
         1        37        15 11.930000 ~rcond36~ 11.000000  0.000000
         1        38        15 11.700000 ~rcond37~ 10.750000  0.000000
         1        39        15 11.480000 ~rcond38~ 10.500000  0.000000
         1        40        15 11.250000 ~rcond39~ 10.250000  0.000000
        -1         0 # stress period 1
        -1         0 # stress period 2
