pcf
* control data
             restart          estimation
        60         2         1         0         1         0
         1         1              single               point         1         0         0          noobsreref
   2.000000E+01  -3.000000E+00   3.000000E-01   1.000000E-02        -7       999          lamforgive        noderforgive
   1.000000E+01   1.000000E+01   1.000000E-03         0         0
   1.000000E-01         1   1.100000E+00               noaui          nosenreuse        noboundscale
        30   1.000000E-02         3         3   1.000000E-02         3   0.000000E+00         1  -1.000000E+00
         0         0         0         0             jcosave          verboserec          jcosaveitn          reisaveitn          parsaveitn        noparsaverun
* singular value decomposition
         1
  10000000    1.000000E-06
1
* parameter groups
pargp                   relative              1.0000000000E-02       0.0  switch                2.0000000000E+00       parabolic             1.0000000000E-05      5.0000000000E-01       smaller
* parameter data
dvar1                  log                    factor                1.0000000000E+00      1.1000000000E-10      1.1000000000E+10       pargp                 1.0000000000E+00      0.0000000000E+00      1          
dvar10                 log                    factor                1.0000000000E+00      1.1000000000E-10      1.1000000000E+10       pargp                 1.0000000000E+00      0.0000000000E+00      1          
dvar11                 log                    factor                1.0000000000E+00      1.1000000000E-10      1.1000000000E+10       pargp                 1.0000000000E+00      0.0000000000E+00      1          
dvar12                 log                    factor                1.0000000000E+00      1.1000000000E-10      1.1000000000E+10       pargp                 1.0000000000E+00      0.0000000000E+00      1          
dvar13                 log                    factor                1.0000000000E+00      1.1000000000E-10      1.1000000000E+10       pargp                 1.0000000000E+00      0.0000000000E+00      1          
dvar14                 log                    factor                1.0000000000E+00      1.1000000000E-10      1.1000000000E+10       pargp                 1.0000000000E+00      0.0000000000E+00      1          
dvar15                 log                    factor                1.0000000000E+00      1.1000000000E-10      1.1000000000E+10       pargp                 1.0000000000E+00      0.0000000000E+00      1          
dvar16                 log                    factor                1.0000000000E+00      1.1000000000E-10      1.1000000000E+10       pargp                 1.0000000000E+00      0.0000000000E+00      1          
dvar17                 log                    factor                1.0000000000E+00      1.1000000000E-10      1.1000000000E+10       pargp                 1.0000000000E+00      0.0000000000E+00      1          
dvar18                 log                    factor                1.0000000000E+00      1.1000000000E-10      1.1000000000E+10       pargp                 1.0000000000E+00      0.0000000000E+00      1          
dvar19                 log                    factor                1.0000000000E+00      1.1000000000E-10      1.1000000000E+10       pargp                 1.0000000000E+00      0.0000000000E+00      1          
dvar2                  log                    factor                1.0000000000E+00      1.1000000000E-10      1.1000000000E+10       pargp                 1.0000000000E+00      0.0000000000E+00      1          
dvar20                 log                    factor                1.0000000000E+00      1.1000000000E-10      1.1000000000E+10       pargp                 1.0000000000E+00      0.0000000000E+00      1          
dvar21                 log                    factor                1.0000000000E+00      1.1000000000E-10      1.1000000000E+10       pargp                 1.0000000000E+00      0.0000000000E+00      1          
dvar22                 log                    factor                1.0000000000E+00      1.1000000000E-10      1.1000000000E+10       pargp                 1.0000000000E+00      0.0000000000E+00      1          
dvar23                 log                    factor                1.0000000000E+00      1.1000000000E-10      1.1000000000E+10       pargp                 1.0000000000E+00      0.0000000000E+00      1          
dvar24                 log                    factor                1.0000000000E+00      1.1000000000E-10      1.1000000000E+10       pargp                 1.0000000000E+00      0.0000000000E+00      1          
dvar25                 log                    factor                1.0000000000E+00      1.1000000000E-10      1.1000000000E+10       pargp                 1.0000000000E+00      0.0000000000E+00      1          
dvar26                 log                    factor                1.0000000000E+00      1.1000000000E-10      1.1000000000E+10       pargp                 1.0000000000E+00      0.0000000000E+00      1          
dvar27                 log                    factor                1.0000000000E+00      1.1000000000E-10      1.1000000000E+10       pargp                 1.0000000000E+00      0.0000000000E+00      1          
dvar28                 log                    factor                1.0000000000E+00      1.1000000000E-10      1.1000000000E+10       pargp                 1.0000000000E+00      0.0000000000E+00      1          
dvar29                 log                    factor                1.0000000000E+00      1.1000000000E-10      1.1000000000E+10       pargp                 1.0000000000E+00      0.0000000000E+00      1          
dvar3                  log                    factor                1.0000000000E+00      1.1000000000E-10      1.1000000000E+10       pargp                 1.0000000000E+00      0.0000000000E+00      1          
dvar30                 log                    factor                1.0000000000E+00      1.1000000000E-10      1.1000000000E+10       pargp                 1.0000000000E+00      0.0000000000E+00      1          
dvar4                  log                    factor                1.0000000000E+00      1.1000000000E-10      1.1000000000E+10       pargp                 1.0000000000E+00      0.0000000000E+00      1          
dvar5                  log                    factor                1.0000000000E+00      1.1000000000E-10      1.1000000000E+10       pargp                 1.0000000000E+00      0.0000000000E+00      1          
dvar6                  log                    factor                1.0000000000E+00      1.1000000000E-10      1.1000000000E+10       pargp                 1.0000000000E+00      0.0000000000E+00      1          
dvar7                  log                    factor                1.0000000000E+00      1.1000000000E-10      1.1000000000E+10       pargp                 1.0000000000E+00      0.0000000000E+00      1          
dvar8                  log                    factor                1.0000000000E+00      1.1000000000E-10      1.1000000000E+10       pargp                 1.0000000000E+00      0.0000000000E+00      1          
dvar9                  log                    factor                1.0000000000E+00      1.1000000000E-10      1.1000000000E+10       pargp                 1.0000000000E+00      0.0000000000E+00      1          
par1                   log                    factor                1.0000000000E+00      1.1000000000E-10      1.1000000000E+10       pargp                 1.0000000000E+00      0.0000000000E+00      1          
par10                  log                    factor                1.0000000000E+00      1.1000000000E-10      1.1000000000E+10       pargp                 1.0000000000E+00      0.0000000000E+00      1          
par11                  log                    factor                1.0000000000E+00      1.1000000000E-10      1.1000000000E+10       pargp                 1.0000000000E+00      0.0000000000E+00      1          
par12                  log                    factor                1.0000000000E+00      1.1000000000E-10      1.1000000000E+10       pargp                 1.0000000000E+00      0.0000000000E+00      1          
par13                  log                    factor                1.0000000000E+00      1.1000000000E-10      1.1000000000E+10       pargp                 1.0000000000E+00      0.0000000000E+00      1          
par14                  log                    factor                1.0000000000E+00      1.1000000000E-10      1.1000000000E+10       pargp                 1.0000000000E+00      0.0000000000E+00      1          
par15                  log                    factor                1.0000000000E+00      1.1000000000E-10      1.1000000000E+10       pargp                 1.0000000000E+00      0.0000000000E+00      1          
par16                  log                    factor                1.0000000000E+00      1.1000000000E-10      1.1000000000E+10       pargp                 1.0000000000E+00      0.0000000000E+00      1          
par17                  log                    factor                1.0000000000E+00      1.1000000000E-10      1.1000000000E+10       pargp                 1.0000000000E+00      0.0000000000E+00      1          
par18                  log                    factor                1.0000000000E+00      1.1000000000E-10      1.1000000000E+10       pargp                 1.0000000000E+00      0.0000000000E+00      1          
par19                  log                    factor                1.0000000000E+00      1.1000000000E-10      1.1000000000E+10       pargp                 1.0000000000E+00      0.0000000000E+00      1          
par2                   log                    factor                1.0000000000E+00      1.1000000000E-10      1.1000000000E+10       pargp                 1.0000000000E+00      0.0000000000E+00      1          
par20                  log                    factor                1.0000000000E+00      1.1000000000E-10      1.1000000000E+10       pargp                 1.0000000000E+00      0.0000000000E+00      1          
par21                  log                    factor                1.0000000000E+00      1.1000000000E-10      1.1000000000E+10       pargp                 1.0000000000E+00      0.0000000000E+00      1          
par22                  log                    factor                1.0000000000E+00      1.1000000000E-10      1.1000000000E+10       pargp                 1.0000000000E+00      0.0000000000E+00      1          
par23                  log                    factor                1.0000000000E+00      1.1000000000E-10      1.1000000000E+10       pargp                 1.0000000000E+00      0.0000000000E+00      1          
par24                  log                    factor                1.0000000000E+00      1.1000000000E-10      1.1000000000E+10       pargp                 1.0000000000E+00      0.0000000000E+00      1          
par25                  log                    factor                1.0000000000E+00      1.1000000000E-10      1.1000000000E+10       pargp                 1.0000000000E+00      0.0000000000E+00      1          
par26                  log                    factor                1.0000000000E+00      1.1000000000E-10      1.1000000000E+10       pargp                 1.0000000000E+00      0.0000000000E+00      1          
par27                  log                    factor                1.0000000000E+00      1.1000000000E-10      1.1000000000E+10       pargp                 1.0000000000E+00      0.0000000000E+00      1          
par28                  log                    factor                1.0000000000E+00      1.1000000000E-10      1.1000000000E+10       pargp                 1.0000000000E+00      0.0000000000E+00      1          
par29                  log                    factor                1.0000000000E+00      1.1000000000E-10      1.1000000000E+10       pargp                 1.0000000000E+00      0.0000000000E+00      1          
par3                   log                    factor                1.0000000000E+00      1.1000000000E-10      1.1000000000E+10       pargp                 1.0000000000E+00      0.0000000000E+00      1          
par30                  log                    factor                1.0000000000E+00      1.1000000000E-10      1.1000000000E+10       pargp                 1.0000000000E+00      0.0000000000E+00      1          
par4                   log                    factor                1.0000000000E+00      1.1000000000E-10      1.1000000000E+10       pargp                 1.0000000000E+00      0.0000000000E+00      1          
par5                   log                    factor                1.0000000000E+00      1.1000000000E-10      1.1000000000E+10       pargp                 1.0000000000E+00      0.0000000000E+00      1          
par6                   log                    factor                1.0000000000E+00      1.1000000000E-10      1.1000000000E+10       pargp                 1.0000000000E+00      0.0000000000E+00      1          
par7                   log                    factor                1.0000000000E+00      1.1000000000E-10      1.1000000000E+10       pargp                 1.0000000000E+00      0.0000000000E+00      1          
par8                   log                    factor                1.0000000000E+00      1.1000000000E-10      1.1000000000E+10       pargp                 1.0000000000E+00      0.0000000000E+00      1          
par9                   log                    factor                1.0000000000E+00      1.1000000000E-10      1.1000000000E+10       pargp                 1.0000000000E+00      0.0000000000E+00      1
* observation groups
obgnme               
* observation data
obj1                  1.4532730000E+00      1.0000000000E+00       obgnme               
obj2                  1.5015440000E+01      1.0000000000E+00       obgnme
* model command line
model.bat
* model input/output
zdt1.tpl input.dat
zdt1.ins output.dat
