ptf ~
# RCH for MODFLOW, generated by Flopy.
         3         0
         1        -1 # Stress period 1
OPEN/CLOSE                  rech_0.ref     ~    rch_1     ~  (20G15.6) -1 rech_1                        
         1        -1 # Stress period 2
OPEN/CLOSE                  rech_1.ref     ~    rch_2     ~ (20G15.6) -1 rech_2                        
         1        -1 # Stress period 3
OPEN/CLOSE                  rech_2.ref     ~    rch_2     ~  (20G15.6) -1 rech_3                        
