ptf ~
# Well file for MODFLOW, generated by Flopy.
         6         0
         6         0 # stress period 0
         1         9        16  ~  wf1_1  ~  0.000000
         1        11        13  ~  wf2_1  ~  0.000000
         1        20        14  ~  wf3_1  ~  0.000000
         1        26        10  ~  wf4_1  ~  0.000000
         1        29         6  ~  wf5_1  ~  0.000000
         1        34        12  ~  wf6_1  ~  0.000000
         6         0 # stress period 1
         1         9        16  ~  wf1_2  ~  0.000000
         1        11        13  ~  wf2_2  ~  0.000000
         1        20        14  ~  wf3_2  ~  0.000000
         1        26        10  ~  wf4_2  ~  0.000000
         1        29         6  ~  wf5_2  ~  0.000000
         1        34        12  ~  wf6_2  ~  0.000000
         6         0 # stress period 2
         1         9        16  ~  wf1_2  ~  0.000000
         1        11        13  ~  wf2_2  ~  0.000000
         1        20        14  ~  wf3_2  ~  0.000000
         1        26        10  ~  wf4_2  ~  0.000000
         1        29         6  ~  wf5_2  ~  0.000000
         1        34        12  ~  wf6_2  ~  0.000000
