ptf ~
# Well file for MODFLOW, generated by Flopy.
        10         0
        10         0
        1         1         1  ~   flux1   ~
        2         1         1  ~   flux1   ~
        3         1         1  ~   flux1   ~
        4         1         1  ~   flux1   ~
        5         1         1  ~   flux1   ~
        6         1         1  ~   flux1   ~
        7         1         1  ~   flux1   ~
        8         1         1  ~   flux1   ~
        9         1         1  ~   flux1   ~
       10         1         1  ~   flux1   ~
        10         0
        1         1         1  0.000000e+00
        2         1         1  0.000000e+00
        3         1         1  0.000000e+00
        4         1         1  0.000000e+00
        5         1         1  0.000000e+00
        6         1         1  0.000000e+00
        7         1         1  0.000000e+00
        8         1         1  0.000000e+00
        9         1         1  0.000000e+00
       10         1         1  0.000000e+00
