MODPATH_PATHLINE_FILE 6 0                                                       
 1   0.0000000E+00
END HEADER
         1     1    -1     2   0.1826000E+04   0.6250000E+03   0.6375000E+04   0.3500000E+02    1   15    3  1  0.5000000E+00   0.5000000E+00   0.1000000E+01     1
         1     1    -1     3   0.1826000E+04   0.6250000E+03   0.6375000E+04   0.3500000E+02    1   15    3  1  0.5000000E+00   0.5000000E+00   0.1000000E+01     2
         1     1    -1     3   0.2356306E+04   0.6382026E+03   0.6250000E+04   0.3497541E+02    1   16    3  1  0.5528104E+00   0.1000000E+01   0.9990000E+00     2
         1     1    -1     3   0.3159007E+04   0.6434547E+03   0.6000000E+04   0.3497422E+02    1   17    3  1  0.5738186E+00   0.1000000E+01   0.9990000E+00     2
         1     1    -1     3   0.3772006E+04   0.6433986E+03   0.5750000E+04   0.3497192E+02    1   18    3  1  0.5735946E+00   0.1000000E+01   0.9990000E+00     2
         1     1    -1     3   0.4277439E+04   0.6486434E+03   0.5500000E+04   0.3497106E+02    1   19    3  1  0.5945737E+00   0.1000000E+01   0.9990000E+00     2
         1     1    -1     3   0.4698397E+04   0.6610258E+03   0.5250000E+04   0.3496899E+02    1   20    3  1  0.6441033E+00   0.1000000E+01   0.9990000E+00     2
         1     1    -1     3   0.5096904E+04   0.6868544E+03   0.5000000E+04   0.3497288E+02    1   21    3  1  0.7474176E+00   0.1000000E+01   0.9990000E+00     2
         1     1    -1     3   0.5412553E+04   0.7184569E+03   0.4750000E+04   0.3496973E+02    1   22    3  1  0.8738277E+00   0.1000000E+01   0.9990000E+00     2
         1     1    -1     3   0.5611614E+04   0.7500000E+03   0.4598084E+04   0.3497328E+02    1   22    4  1  0.0000000E+00   0.3923368E+00   0.9990000E+00     2
         1     1    -1     3   0.5692844E+04   0.7643292E+03   0.4500000E+04   0.3497364E+02    1   23    4  1  0.5731660E-01   0.1000000E+01   0.9990000E+00     2
         1     1    -1     3   0.5930033E+04   0.9080964E+03   0.4250000E+04   0.3497438E+02    1   24    4  1  0.6323857E+00   0.1000000E+01   0.9990000E+00     2
         1     1    -1     3   0.6042454E+04   0.1000000E+04   0.4157557E+04   0.3497601E+02    1   24    5  1  0.0000000E+00   0.6302285E+00   0.9990000E+00     2
         1     1    -1     3   0.6240622E+04   0.1240242E+04   0.4000000E+04   0.3497611E+02    1   25    5  1  0.9609684E+00   0.1000000E+01   0.9990000E+00     2
         1     1    -1     3   0.6249320E+04   0.1250000E+04   0.3994327E+04   0.3497024E+02    1   25    6  1  0.0000000E+00   0.9773062E+00   0.9990000E+00     2
         1     1    -1     3   0.6507860E+04   0.1500000E+04   0.3943012E+04   0.3497080E+02    1   25    7  1  0.0000000E+00   0.7720501E+00   0.9990000E+00     2
         1     1    -1     3   0.6762454E+04   0.1750000E+04   0.3983909E+04   0.3497060E+02    1   25    8  1  0.0000000E+00   0.9356369E+00   0.9990000E+00     2
         1     1    -1     3   0.6838427E+04   0.1817943E+04   0.4000000E+04   0.3496976E+02    1   24    8  1  0.2717726E+00   0.0000000E+00   0.9990000E+00     2
         1     1    -1     3   0.7059941E+04   0.2000000E+04   0.4047323E+04   0.3497202E+02    1   24    9  1  0.0000000E+00   0.1892916E+00   0.9990000E+00     2
         1     1    -1     3   0.7353230E+04   0.2250000E+04   0.4079270E+04   0.3497008E+02    1   24   10  1  0.0000000E+00   0.3170805E+00   0.9990000E+00     2
         1     1    -1     3   0.7709758E+04   0.2500000E+04   0.4067722E+04   0.3496649E+02    1   24   11  1  0.0000000E+00   0.2708870E+00   0.9990000E+00     2
         1     1    -1     3   0.8127170E+04   0.2750000E+04   0.4063436E+04   0.3496633E+02    1   24   12  1  0.0000000E+00   0.2537422E+00   0.9990000E+00     2
         1     1    -1     3   0.8529039E+04   0.3000000E+04   0.4050384E+04   0.3496660E+02    1   24   13  1  0.0000000E+00   0.2015345E+00   0.9990000E+00     2
         1     1    -1     3   0.8909081E+04   0.3250000E+04   0.4031150E+04   0.3496617E+02    1   24   14  1  0.0000000E+00   0.1246008E+00   0.9990000E+00     2
         1     1    -1     3   0.9111068E+04   0.3384904E+04   0.4000000E+04   0.3496561E+02    1   25   14  1  0.5396158E+00   0.1000000E+01   0.9990000E+00     2
         1     1    -1     3   0.9266104E+04   0.3500000E+04   0.3976125E+04   0.3496530E+02    1   25   15  1  0.0000000E+00   0.9045018E+00   0.9990000E+00     2
         1     1    -1     3   0.1023138E+05   0.3661798E+04   0.3750000E+04   0.3496547E+02    1   26   15  1  0.6471934E+00   0.1000000E+01   0.9990000E+00     2
         1     1    -1     3   0.1139955E+05   0.3668118E+04   0.3500000E+04   0.3496539E+02    1   27   15  1  0.6724732E+00   0.1000000E+01   0.9990000E+00     2
         1     1    -1     3   0.1282658E+05   0.3659156E+04   0.3250000E+04   0.3496521E+02    1   28   15  1  0.6366263E+00   0.1000000E+01   0.9990000E+00     2
         1     1    -1     3   0.1445091E+05   0.3658617E+04   0.3000000E+04   0.3496569E+02    1   29   15  1  0.6344687E+00   0.1000000E+01   0.9990000E+00     2
         1     1    -1     3   0.1603946E+05   0.3673530E+04   0.2750000E+04   0.3496502E+02    1   30   15  1  0.6941205E+00   0.1000000E+01   0.9990000E+00     2
         1     1    -1     3   0.1783788E+05   0.3675964E+04   0.2500000E+04   0.3496541E+02    1   31   15  1  0.7038561E+00   0.1000000E+01   0.9990000E+00     2
         1     1    -1     3   0.2052579E+05   0.3690991E+04   0.2250000E+04   0.3496557E+02    1   32   15  1  0.7639660E+00   0.1000000E+01   0.9990000E+00     2
         1     1    -1     3   0.2402139E+05   0.3685593E+04   0.2000000E+04   0.3496571E+02    1   33   15  1  0.7423730E+00   0.1000000E+01   0.9990000E+00     2
         1     1    -1     3   0.2649720E+05   0.3668482E+04   0.1750000E+04   0.3496569E+02    1   34   15  1  0.6739297E+00   0.1000000E+01   0.9990000E+00     2
         1     1    -1     3   0.2843336E+05   0.3646837E+04   0.1500000E+04   0.3496559E+02    1   35   15  1  0.5873464E+00   0.1000000E+01   0.9990000E+00     2
         1     1    -1     3   0.3039610E+05   0.3644462E+04   0.1250000E+04   0.3496525E+02    1   36   15  1  0.5778466E+00   0.1000000E+01   0.9990000E+00     2
         1     1    -1     3   0.3239940E+05   0.3650934E+04   0.1000000E+04   0.3496507E+02    1   37   15  1  0.6037368E+00   0.1000000E+01   0.9990000E+00     2
         1     1    -1     3   0.3477313E+05   0.3642844E+04   0.7500000E+03   0.3496537E+02    1   38   15  1  0.5713767E+00   0.1000000E+01   0.9990000E+00     2
         1     1    -1     3   0.3780291E+05   0.3615955E+04   0.5000000E+03   0.3496568E+02    1   39   15  1  0.4638189E+00   0.1000000E+01   0.9990000E+00     2
         1     1    -1     3   0.4232781E+05   0.3607162E+04   0.2500000E+03   0.3496551E+02    1   40   15  1  0.4286492E+00   0.1000000E+01   0.9990000E+00     2
         1     1    -1     3   0.4232781E+05   0.3607162E+04   0.2500000E+03   0.3496551E+02    1   40   15  1  0.4286492E+00   0.1000000E+01   0.9990000E+00     2
