ptf ~
BEGIN Options
  PRINT_INPUT
  PRINT_FLOWS
  SAVE_FLOWS
END Options

BEGIN Dimensions
  MAXBOUND  6
END Dimensions

BEGIN PERIOD  1
3 10 17 ~  welflx_2_9_16_0   ~
3 12 14 ~  welflx_2_11_13_0   ~
3 21 15 ~  welflx_2_20_14_0   ~
3 27 11 ~  welflx_2_26_10_0   ~
3 30 7 ~  welflx_2_29_6_0   ~
3 35 13 ~  welflx_2_34_12_0   ~
END PERIOD  1

BEGIN PERIOD  2
3 10 17 ~  welflx_2_9_16_1   ~
3 12 14 ~  welflx_2_11_13_1   ~
3 21 15 ~  welflx_2_20_14_1   ~
3 27 11 ~  welflx_2_26_10_1   ~
3 30 7 ~  welflx_2_29_6_1   ~
3 35 13 ~  welflx_2_34_12_1   ~
END PERIOD  2

BEGIN PERIOD  3
3 10 17 ~  welflx_2_9_16_2   ~
3 12 14 ~  welflx_2_11_13_2   ~
3 21 15 ~  welflx_2_20_14_2   ~
3 27 11 ~  welflx_2_26_10_2   ~
3 30 7 ~  welflx_2_29_6_2   ~
3 35 13 ~  welflx_2_34_12_2   ~
END PERIOD  3

BEGIN PERIOD  4
3 10 17 ~  welflx_2_9_16_3   ~
3 12 14 ~  welflx_2_11_13_3   ~
3 21 15 ~  welflx_2_20_14_3   ~
3 27 11 ~  welflx_2_26_10_3   ~
3 30 7 ~  welflx_2_29_6_3   ~
3 35 13 ~  welflx_2_34_12_3   ~
END PERIOD  4

BEGIN PERIOD  5
3 10 17 ~  welflx_2_9_16_4   ~
3 12 14 ~  welflx_2_11_13_4   ~
3 21 15 ~  welflx_2_20_14_4   ~
3 27 11 ~  welflx_2_26_10_4   ~
3 30 7 ~  welflx_2_29_6_4   ~
3 35 13 ~  welflx_2_34_12_4   ~
END PERIOD  5

BEGIN PERIOD  6
3 10 17 ~  welflx_2_9_16_5   ~
3 12 14 ~  welflx_2_11_13_5   ~
3 21 15 ~  welflx_2_20_14_5   ~
3 27 11 ~  welflx_2_26_10_5   ~
3 30 7 ~  welflx_2_29_6_5   ~
3 35 13 ~  welflx_2_34_12_5   ~
END PERIOD  6

BEGIN PERIOD  7
3 10 17 ~  welflx_2_9_16_6   ~
3 12 14 ~  welflx_2_11_13_6   ~
3 21 15 ~  welflx_2_20_14_6   ~
3 27 11 ~  welflx_2_26_10_6   ~
3 30 7 ~  welflx_2_29_6_6   ~
3 35 13 ~  welflx_2_34_12_6   ~
END PERIOD  7

BEGIN PERIOD  8
3 10 17 ~  welflx_2_9_16_7   ~
3 12 14 ~  welflx_2_11_13_7   ~
3 21 15 ~  welflx_2_20_14_7   ~
3 27 11 ~  welflx_2_26_10_7   ~
3 30 7 ~  welflx_2_29_6_7   ~
3 35 13 ~  welflx_2_34_12_7   ~
END PERIOD  8

BEGIN PERIOD  9
3 10 17 ~  welflx_2_9_16_8   ~
3 12 14 ~  welflx_2_11_13_8   ~
3 21 15 ~  welflx_2_20_14_8   ~
3 27 11 ~  welflx_2_26_10_8   ~
3 30 7 ~  welflx_2_29_6_8   ~
3 35 13 ~  welflx_2_34_12_8   ~
END PERIOD  9

BEGIN PERIOD  10
3 10 17 ~  welflx_2_9_16_9   ~
3 12 14 ~  welflx_2_11_13_9   ~
3 21 15 ~  welflx_2_20_14_9   ~
3 27 11 ~  welflx_2_26_10_9   ~
3 30 7 ~  welflx_2_29_6_9   ~
3 35 13 ~  welflx_2_34_12_9   ~
END PERIOD  10

BEGIN PERIOD  11
3 10 17 ~  welflx_2_9_16_10   ~
3 12 14 ~  welflx_2_11_13_10   ~
3 21 15 ~  welflx_2_20_14_10   ~
3 27 11 ~  welflx_2_26_10_10   ~
3 30 7 ~  welflx_2_29_6_10   ~
3 35 13 ~  welflx_2_34_12_10   ~
END PERIOD  11

BEGIN PERIOD  12
3 10 17 ~  welflx_2_9_16_11   ~
3 12 14 ~  welflx_2_11_13_11   ~
3 21 15 ~  welflx_2_20_14_11   ~
3 27 11 ~  welflx_2_26_10_11   ~
3 30 7 ~  welflx_2_29_6_11   ~
3 35 13 ~  welflx_2_34_12_11   ~
END PERIOD  12

BEGIN PERIOD  13
3 10 17 ~  welflx_2_9_16_12   ~
3 12 14 ~  welflx_2_11_13_12   ~
3 21 15 ~  welflx_2_20_14_12   ~
3 27 11 ~  welflx_2_26_10_12   ~
3 30 7 ~  welflx_2_29_6_12   ~
3 35 13 ~  welflx_2_34_12_12   ~
END PERIOD  13

BEGIN PERIOD  14
3 10 17 ~  welflx_2_9_16_13   ~
3 12 14 ~  welflx_2_11_13_13   ~
3 21 15 ~  welflx_2_20_14_13   ~
3 27 11 ~  welflx_2_26_10_13   ~
3 30 7 ~  welflx_2_29_6_13   ~
3 35 13 ~  welflx_2_34_12_13   ~
END PERIOD  14

BEGIN PERIOD  15
3 10 17 ~  welflx_2_9_16_14   ~
3 12 14 ~  welflx_2_11_13_14   ~
3 21 15 ~  welflx_2_20_14_14   ~
3 27 11 ~  welflx_2_26_10_14   ~
3 30 7 ~  welflx_2_29_6_14   ~
3 35 13 ~  welflx_2_34_12_14   ~
END PERIOD  15

BEGIN PERIOD  16
3 10 17 ~  welflx_2_9_16_15   ~
3 12 14 ~  welflx_2_11_13_15   ~
3 21 15 ~  welflx_2_20_14_15   ~
3 27 11 ~  welflx_2_26_10_15   ~
3 30 7 ~  welflx_2_29_6_15   ~
3 35 13 ~  welflx_2_34_12_15   ~
END PERIOD  16

BEGIN PERIOD  17
3 10 17 ~  welflx_2_9_16_16   ~
3 12 14 ~  welflx_2_11_13_16   ~
3 21 15 ~  welflx_2_20_14_16   ~
3 27 11 ~  welflx_2_26_10_16   ~
3 30 7 ~  welflx_2_29_6_16   ~
3 35 13 ~  welflx_2_34_12_16   ~
END PERIOD  17

BEGIN PERIOD  18
3 10 17 ~  welflx_2_9_16_17   ~
3 12 14 ~  welflx_2_11_13_17   ~
3 21 15 ~  welflx_2_20_14_17   ~
3 27 11 ~  welflx_2_26_10_17   ~
3 30 7 ~  welflx_2_29_6_17   ~
3 35 13 ~  welflx_2_34_12_17   ~
END PERIOD  18

BEGIN PERIOD  19
3 10 17 ~  welflx_2_9_16_18   ~
3 12 14 ~  welflx_2_11_13_18   ~
3 21 15 ~  welflx_2_20_14_18   ~
3 27 11 ~  welflx_2_26_10_18   ~
3 30 7 ~  welflx_2_29_6_18   ~
3 35 13 ~  welflx_2_34_12_18   ~
END PERIOD  19

BEGIN PERIOD  20
3 10 17 ~  welflx_2_9_16_19   ~
3 12 14 ~  welflx_2_11_13_19   ~
3 21 15 ~  welflx_2_20_14_19   ~
3 27 11 ~  welflx_2_26_10_19   ~
3 30 7 ~  welflx_2_29_6_19   ~
3 35 13 ~  welflx_2_34_12_19   ~
END PERIOD  20

BEGIN PERIOD  21
3 10 17 ~  welflx_2_9_16_20   ~
3 12 14 ~  welflx_2_11_13_20   ~
3 21 15 ~  welflx_2_20_14_20   ~
3 27 11 ~  welflx_2_26_10_20   ~
3 30 7 ~  welflx_2_29_6_20   ~
3 35 13 ~  welflx_2_34_12_20   ~
END PERIOD  21

BEGIN PERIOD  22
3 10 17 ~  welflx_2_9_16_21   ~
3 12 14 ~  welflx_2_11_13_21   ~
3 21 15 ~  welflx_2_20_14_21   ~
3 27 11 ~  welflx_2_26_10_21   ~
3 30 7 ~  welflx_2_29_6_21   ~
3 35 13 ~  welflx_2_34_12_21   ~
END PERIOD  22

BEGIN PERIOD  23
3 10 17 ~  welflx_2_9_16_22   ~
3 12 14 ~  welflx_2_11_13_22   ~
3 21 15 ~  welflx_2_20_14_22   ~
3 27 11 ~  welflx_2_26_10_22   ~
3 30 7 ~  welflx_2_29_6_22   ~
3 35 13 ~  welflx_2_34_12_22   ~
END PERIOD  23

BEGIN PERIOD  24
3 10 17 ~  welflx_2_9_16_23   ~
3 12 14 ~  welflx_2_11_13_23   ~
3 21 15 ~  welflx_2_20_14_23   ~
3 27 11 ~  welflx_2_26_10_23   ~
3 30 7 ~  welflx_2_29_6_23   ~
3 35 13 ~  welflx_2_34_12_23   ~
END PERIOD  24

BEGIN PERIOD  25
3 10 17 ~  welflx_2_9_16_24   ~
3 12 14 ~  welflx_2_11_13_24   ~
3 21 15 ~  welflx_2_20_14_24   ~
3 27 11 ~  welflx_2_26_10_24   ~
3 30 7 ~  welflx_2_29_6_24   ~
3 35 13 ~  welflx_2_34_12_24   ~
END PERIOD  25

