BEGIN GRIDDATA
  strt  LAYERED
    INTERNAL  FACTOR  1.0  IPRN  1
          39.43086000      39.36268000      39.21904000      39.00412000      38.77077000      38.50557000      38.18176000      37.90130000      37.56582000      37.22559000      36.89874000      36.57523000      36.24156000      35.87820000      35.50056000      35.06069000      35.20473000      35.27559000      35.32089000      35.34552000
          39.44527000      39.36940000      39.22670000      39.00596000      38.78024000      38.51054000      38.18633000      37.88638000      37.55757000      37.20073000      36.87487000      36.55574000      36.22322000      35.86160000      35.49544000      35.05295000      35.19559000      35.26754000      35.31320000      35.33702000
          39.46900000      39.39716000      39.24449000      39.01912000      38.79418000      38.51512000      38.17535000      37.87197000      37.52209000      37.17342000      36.83224000      36.51633000      36.18360000      35.83557000      35.48130000      35.04065000      35.18043000      35.25023000      35.29593000      35.31992000
          39.50838000      39.43621000      39.28373000      39.05054000      38.80814000      38.52427000      38.16513000      37.83732000      37.49215000      37.09958000      36.76297000      36.45302000      36.13057000      35.79908000      35.44677000      35.02528000      35.16197000      35.22576000      35.27038000      35.29298000
          39.56419000      39.48478000      39.32754000      39.10040000      38.84030000      38.51875000      38.15439000      37.82148000      37.40578000      37.01961000      36.68917000      36.38351000      36.07055000      35.74831000      35.40582000      35.00325000      35.12611000      35.19056000      35.23312000      35.25589000
          39.62414000      39.55672000      39.39479000      39.15784000      38.87703000      38.53620000      38.15074000      37.73252000      37.34135000      36.93086000      36.58042000      36.29402000      35.99444000      35.68420000      35.35688000      34.96748000      35.08276000      35.14046000      35.18670000      35.21109000
          39.69868000      39.62992000      39.48996000      39.23894000      38.93209000      38.52823000      38.12214000      37.62857000      37.20697000      36.78788000      36.46219000      36.18856000      35.90310000      35.60627000      35.29230000      34.92152000      35.02530000      35.08184000      35.12828000      35.15579000
          39.81558000      39.74572000      39.62339000      39.39439000      38.98695000      38.53481000      38.05378000      37.46363000      37.00099000      36.61390000      36.32274000      36.06667000      35.79800000      35.50877000      35.21215000      34.86261000      34.93946000      35.00697000      35.06246000      35.09692000
          39.92730000      39.87743000      39.80485000      39.73710000    -999.99000000    -999.99000000    -999.99000000      37.06635000      36.67862000      36.40659000      36.17124000      35.92987000      35.67308000      35.40256000      35.12021000      34.78336000      34.80338000      34.90837000      34.99385000      35.03756000
          40.03695000      39.99795000      39.96646000      39.93070000    -999.99000000    -999.99000000    -999.99000000    -999.99000000      36.34867000      36.19534000      36.00122000      35.78632000      35.54042000      35.27299000      35.01852000      34.68908000      34.52465000      34.80782000      34.93984000      34.99337000
          40.10798000      40.08604000      40.06496000      40.05283000    -999.99000000    -999.99000000    -999.99000000    -999.99000000      36.11222000      36.00601000      35.84966000      35.65059000      35.39595000      35.11066000      34.92912000      34.69059000      34.72414000      34.84214000      34.93189000      34.97701000
          40.13496000      40.12573000      40.11518000      40.10788000    -999.99000000    -999.99000000    -999.99000000    -999.99000000      35.94160000      35.86066000      35.72345000      35.53623000      35.25570000      34.82143000      34.84219000      34.68804000      34.79187000      34.87511000      34.94038000      34.97561000
          40.12810000      40.12109000      40.11386000      40.10799000    -999.99000000    -999.99000000    -999.99000000    -999.99000000      35.82072000      35.75404000      35.63286000      35.47183000      35.25925000      35.01674000      34.88357000      34.70144000      34.82134000      34.89558000      34.95097000      34.97992000
          40.08105000      40.07545000      40.06474000      40.05877000    -999.99000000    -999.99000000    -999.99000000    -999.99000000      35.73608000      35.67591000      35.57119000      35.43655000      35.26615000      35.08163000      34.91636000      34.71117000      34.83585000      34.90744000      34.95759000      34.98344000
          39.98886000      39.98597000      39.97560000      39.97042000    -999.99000000    -999.99000000    -999.99000000    -999.99000000      35.67188000      35.61864000      35.52501000      35.40896000      35.26160000      35.09774000      34.92727000      34.71305000      34.84069000      34.91080000      34.95855000      34.98366000
          39.86516000      39.85850000      39.84798000      39.84566000    -999.99000000    -999.99000000    -999.99000000    -999.99000000      35.62433000      35.57257000      35.49020000      35.38250000      35.24697000      35.09209000      34.92326000      34.70600000      34.83517000      34.90635000      34.95460000      34.97942000
          39.69059000      39.67510000      39.67641000      39.68198000    -999.99000000    -999.99000000    -999.99000000    -999.99000000      35.58910000      35.54234000      35.45867000      35.35480000      35.22408000      35.07254000      34.90602000      34.69286000      34.82087000      34.89531000      34.94488000      34.97008000
          39.49816000      39.48521000      39.47292000      39.47753000    -999.99000000    -999.99000000    -999.99000000    -999.99000000      35.56813000      35.51730000      35.43212000      35.32703000      35.19378000      35.04090000      34.87529000      34.67112000      34.79972000      34.87784000      34.92996000      34.95658000
          39.26764000      39.25672000      39.23830000      39.24030000    -999.99000000    -999.99000000    -999.99000000    -999.99000000      35.55636000      35.50184000      35.41128000      35.29874000      35.15771000      34.99345000      34.82012000      34.63806000      34.77211000      34.85630000      34.91201000      34.94127000
          39.00395000      38.98331000      38.96159000      38.95481000    -999.99000000    -999.99000000    -999.99000000    -999.99000000      35.56224000      35.49712000      35.39711000      35.27387000      35.11645000      34.92525000      34.71485000      34.58847000      34.73840000      34.83276000      34.89430000      34.92429000
          38.70562000      38.68725000      38.66241000      38.62782000    -999.99000000    -999.99000000    -999.99000000    -999.99000000      35.59266000      35.50718000      35.39182000      35.25469000      35.08076000      34.84664000      34.46909000      34.52806000      34.70878000      34.81225000      34.87763000      34.90856000
          38.41190000      38.36644000      38.29570000      38.24215000    -999.99000000    -999.99000000      35.94993000      35.84913000      35.66516000      35.53220000      35.38822000      35.24680000      35.08070000      34.88689000      34.67830000      34.55969000      34.70945000      34.80207000      34.86372000      34.89470000
          38.07671000      38.02718000      37.93462000      37.77934000      37.45599000    -999.99000000      36.01212000      35.88057000      35.69532000      35.53671000      35.37598000      35.23364000      35.07963000      34.91676000      34.74926000      34.57918000      34.71331000      34.79605000      34.85271000      34.88203000
          37.79176000      37.71923000      37.60748000      37.42229000      37.09854000      36.58887000      36.16939000      35.90630000      35.70650000      35.51131000      35.34148000      35.20164000      35.06314000      34.91808000      34.76752000      34.58291000      34.71133000      34.78797000      34.84196000      34.86937000
          37.50785000      37.43306000      37.30781000      37.13596000      36.82223000      36.44960000      36.14986000      35.88847000      35.66356000      35.44406000      35.26817000      35.14204000      35.02417000      34.89840000      34.75916000      34.57494000      34.70309000      34.77633000      34.82824000      34.85439000
          37.24476000      37.17543000      37.05838000      36.83915000      36.58826000      36.31349000      36.05772000      35.80412000      35.57337000      35.34607000      35.12667000      35.05025000      34.96780000      34.86358000      34.73768000      34.55984000      34.68702000      34.75967000      34.81072000      34.83648000
          36.99396000      36.93194000      36.80611000      36.63051000      36.39285000      36.15572000      35.91199000      35.68911000      35.46452000      35.21476000      34.84045000      34.93669000      34.90591000      34.82251000      34.70877000      34.54000000      34.66703000      34.73928000      34.78759000      34.81364000
          36.77883000      36.71267000      36.58611000      36.41787000      36.19467000      35.96746000      35.73481000      35.54423000      35.36753000      35.17960000      34.98985000      34.93266000      34.86983000      34.78408000      34.67654000      34.51686000      34.64181000      34.71364000      34.76172000      34.78697000
          36.58041000      36.50275000      36.38457000      36.21283000      35.98858000      35.74907000      35.49037000      35.37351000      35.25732000      35.12410000      34.99532000      34.90841000      34.82900000      34.74078000      34.63892000      34.48981000      34.61192000      34.68301000      34.73109000      34.75678000
          36.39692000      36.31918000      36.19074000      36.01460000      35.80361000      35.52220000      35.09174000      35.18933000      35.13513000      35.03989000      34.93869000      34.85012000      34.76730000      34.68364000      34.59091000      34.45804000      34.57586000      34.64741000      34.69572000      34.72124000
          36.25383000      36.17073000      36.03824000      35.87386000      35.65332000      35.44243000      35.20507000      35.11510000      35.03019000      34.93671000      34.84320000      34.75858000      34.68054000      34.60703000      34.53085000      34.41928000      34.53492000      34.60643000      34.65569000      34.68122000
          36.17171000      36.04162000      35.89363000      35.69274000      35.51902000      35.32935000      35.14507000      35.01262000      34.91153000      34.81058000      34.71572000      34.63113000      34.56009000      34.50454000      34.45369000      34.37313000      34.48635000      34.56047000      34.61110000      34.63910000
        -999.99000000      35.90557000      35.73874000      35.53558000      35.35802000      35.17724000      35.00842000      34.87302000      34.75641000      34.65068000      34.55211000      34.46458000      34.39311000      34.36954000      34.35667000      34.31787000      34.43093000      34.50900000      34.56323000      34.59365000
        -999.99000000    -999.99000000      35.56422000      35.35013000      35.15570000      34.97945000      34.81611000      34.68809000      34.56931000      34.45612000      34.35356000      34.25016000      34.15403000      34.19518000      34.23955000      34.25457000      34.36872000      34.45118000      34.51220000      34.55009000
        -999.99000000    -999.99000000    -999.99000000      35.14823000      34.90368000      34.73221000      34.59171000      34.46457000      34.33957000      34.23458000      34.13079000      33.99688000      33.75338000      33.98949000      34.11076000      34.18523000      34.29863000      34.38638000      34.45393000      34.51693000
        -999.99000000    -999.99000000    -999.99000000    -999.99000000      34.57502000      34.43534000      34.29868000      34.17156000      34.06984000      33.98382000      33.90470000      33.83091000      33.77723000      33.87614000      33.99386000      34.11288000      34.22123000      34.31079000      34.37061000    -999.99000000
        -999.99000000    -999.99000000    -999.99000000    -999.99000000      34.36035000      34.09748000      33.95101000      33.83022000      33.75571000      33.69541000      33.64540000      33.61559000      33.62500000      33.71183000      33.84816000      34.02888000      34.13554000      34.23699000      34.31829000    -999.99000000
        -999.99000000    -999.99000000    -999.99000000    -999.99000000    -999.99000000      33.57815000      33.50858000      33.44720000      33.40490000      33.36467000      33.33929000      33.33514000      33.36615000      33.45937000      33.63675000      33.92591000      34.03805000      34.15180000    -999.99000000    -999.99000000
        -999.99000000    -999.99000000    -999.99000000    -999.99000000    -999.99000000      33.07281000      33.05983000      33.03059000      33.00543000      32.98577000      32.97503000      32.98119000      33.01191000      33.09389000      33.29321000      33.81567000      33.92774000    -999.99000000    -999.99000000    -999.99000000
        -999.99000000    -999.99000000    -999.99000000    -999.99000000    -999.99000000      32.50698000      32.50670000      32.50694000      32.50668000      32.50663000      32.50669000      32.50675000      32.50722000      32.50841000      32.51059000    -999.99000000    -999.99000000    -999.99000000    -999.99000000    -999.99000000
    INTERNAL  FACTOR  1.0  IPRN  1
          39.42999000      39.36185000      39.21820000      39.00313000      38.76981000      38.50469000      38.18058000      37.90047000      37.56482000      37.22459000      36.89777000      36.57428000      36.24067000      35.87726000      35.49973000      35.07436000      35.20395000      35.27466000      35.31994000      35.34458000
          39.44443000      39.36850000      39.22586000      39.00491000      38.77932000      38.50966000      38.18526000      37.88543000      37.55670000      37.19960000      36.87387000      36.55481000      36.22233000      35.86060000      35.49466000      35.06670000      35.19479000      35.26661000      35.31226000      35.33609000
          39.46813000      39.39633000      39.24361000      39.01803000      38.79330000      38.51425000      38.17421000      37.87114000      37.52103000      37.17250000      36.83121000      36.51542000      36.18265000      35.83459000      35.48058000      35.05437000      35.17961000      35.24929000      35.29499000      35.31898000
          39.50751000      39.43538000      39.28292000      39.04948000      38.80717000      38.52350000      38.16400000      37.83628000      37.49142000      37.09840000      36.76187000      36.45204000      36.12958000      35.79815000      35.44596000      35.03893000      35.16121000      35.22481000      35.26944000      35.29204000
          39.56338000      39.48390000      39.32664000      39.09944000      38.83944000      38.51777000      38.15324000      37.82091000      37.40459000      37.01843000      36.68816000      36.38255000      36.06960000      35.74737000      35.40499000      35.01668000      35.12527000      35.18963000      35.23217000      35.25495000
          39.62326000      39.55596000      39.39389000      39.15686000      38.87612000      38.53537000      38.14988000      37.73145000      37.34058000      36.92981000      36.57922000      36.29307000      35.99348000      35.68326000      35.35608000      34.98021000      35.08194000      35.13948000      35.18577000      35.21016000
          39.69772000      39.62897000      39.48915000      39.23785000      38.93134000      38.52716000      38.12148000      37.62749000      37.20614000      36.78666000      36.46106000      36.18761000      35.90214000      35.60534000      35.29148000      34.93330000      35.02449000      35.08089000      35.12733000      35.15485000
          39.81477000      39.74480000      39.62253000      39.39333000      38.98621000      38.53388000      38.05286000      37.46291000      37.00008000      36.61267000      36.32163000      36.06572000      35.79708000      35.50778000      35.21131000      34.87312000      34.93859000      35.00603000      35.06149000      35.09599000
          39.92642000      39.87650000      39.80386000      39.73631000    -999.99000000    -999.99000000    -999.99000000      37.06529000      36.67727000      36.40545000      36.17027000      35.92890000      35.67210000      35.40163000      35.11937000      34.79202000      34.80246000      34.90738000      34.99290000      35.03661000
          40.03615000      39.99698000      39.96563000      39.92977000    -999.99000000    -999.99000000    -999.99000000    -999.99000000      36.34782000      36.19436000      36.00019000      35.78535000      35.53949000      35.27201000      35.01767000      34.69546000      34.52108000      34.80679000      34.93889000      34.99240000
          40.10714000      40.08515000      40.06404000      40.05196000    -999.99000000    -999.99000000    -999.99000000    -999.99000000      36.11131000      36.00499000      35.84868000      35.64965000      35.39499000      35.10970000      34.92821000      34.69741000      34.72319000      34.84118000      34.93093000      34.97606000
          40.13406000      40.12483000      40.11429000      40.10698000    -999.99000000    -999.99000000    -999.99000000    -999.99000000      35.94066000      35.85968000      35.72245000      35.53533000      35.25469000      34.81757000      34.84126000      34.69516000      34.79098000      34.87415000      34.93942000      34.97466000
          40.12720000      40.12018000      40.11296000      40.10709000    -999.99000000    -999.99000000    -999.99000000    -999.99000000      35.81977000      35.75308000      35.63186000      35.47086000      35.25829000      35.01576000      34.88268000      34.70922000      34.82046000      34.89462000      34.95001000      34.97897000
          40.08016000      40.07457000      40.06380000      40.05783000    -999.99000000    -999.99000000    -999.99000000    -999.99000000      35.73516000      35.67495000      35.57020000      35.43560000      35.26519000      35.08068000      34.91548000      34.71952000      34.83498000      34.90649000      34.95664000      34.98249000
          39.98793000      39.98507000      39.97467000      39.96947000    -999.99000000    -999.99000000    -999.99000000    -999.99000000      35.67095000      35.61769000      35.52401000      35.40802000      35.26064000      35.09679000      34.92638000      34.72176000      34.83983000      34.90984000      34.95759000      34.98271000
          39.86429000      39.85765000      39.84705000      39.84473000    -999.99000000    -999.99000000    -999.99000000    -999.99000000      35.62341000      35.57158000      35.48923000      35.38155000      35.24602000      35.09114000      34.92239000      34.71482000      34.83430000      34.90539000      34.95365000      34.97848000
          39.68965000      39.67404000      39.67546000      39.68109000    -999.99000000    -999.99000000    -999.99000000    -999.99000000      35.58816000      35.54140000      35.45768000      35.35385000      35.22313000      35.07158000      34.90513000      34.70167000      34.81999000      34.89436000      34.94392000      34.96913000
          39.49728000      39.48429000      39.47193000      39.47661000    -999.99000000    -999.99000000    -999.99000000    -999.99000000      35.56722000      35.51634000      35.43113000      35.32608000      35.19283000      35.03995000      34.87440000      34.67966000      34.79882000      34.87688000      34.92900000      34.95562000
          39.26674000      39.25584000      39.23733000      39.23942000    -999.99000000    -999.99000000    -999.99000000    -999.99000000      35.55543000      35.50088000      35.41029000      35.29778000      35.15676000      34.99250000      34.81920000      34.64603000      34.77121000      34.85534000      34.91104000      34.94032000
          39.00308000      38.98235000      38.96058000      38.95388000    -999.99000000    -999.99000000    -999.99000000    -999.99000000      35.56132000      35.49614000      35.39611000      35.27292000      35.11550000      34.92428000      34.71389000      34.59541000      34.73747000      34.83179000      34.89334000      34.92333000
          38.70462000      38.68631000      38.66161000      38.62685000    -999.99000000    -999.99000000    -999.99000000    -999.99000000      35.59175000      35.50619000      35.39085000      35.25373000      35.07980000      34.84561000      34.46563000      34.53370000      34.70784000      34.81128000      34.87668000      34.90760000
          38.41113000      38.36554000      38.29460000      38.24118000    -999.99000000    -999.99000000      35.94901000      35.84825000      35.66410000      35.53126000      35.38720000      35.24585000      35.07975000      34.88590000      34.67732000      34.56652000      34.70854000      34.80110000      34.86275000      34.89374000
          38.07568000      38.02618000      37.93367000      37.77850000      37.45506000    -999.99000000      36.01119000      35.87971000      35.69426000      35.53577000      35.37495000      35.23270000      35.07867000      34.91579000      34.74833000      34.58685000      34.71240000      34.79508000      34.85175000      34.88107000
          37.79094000      37.71824000      37.60658000      37.42146000      37.09782000      36.58798000      36.16841000      35.90520000      35.70561000      35.51033000      35.34047000      35.20068000      35.06219000      34.91711000      34.76661000      34.59100000      34.71042000      34.78699000      34.84100000      34.86841000
          37.50697000      37.43209000      37.30677000      37.13538000      36.82124000      36.44834000      36.14892000      35.88753000      35.66265000      35.44299000      35.26719000      35.14108000      35.02321000      34.89743000      34.75825000      34.58313000      34.70220000      34.77535000      34.82728000      34.85343000
          37.24390000      37.17450000      37.05764000      36.83794000      36.58718000      36.31246000      36.05684000      35.80311000      35.57238000      35.34510000      35.12564000      35.04930000      34.96684000      34.86260000      34.73677000      34.56794000      34.68612000      34.75869000      34.80976000      34.83553000
          36.99300000      36.93102000      36.80513000      36.62968000      36.39182000      36.15479000      35.91099000      35.68817000      35.46353000      35.21381000      34.83670000      34.93569000      34.90494000      34.82153000      34.70786000      34.54790000      34.66613000      34.73831000      34.78662000      34.81268000
          36.77795000      36.71178000      36.58514000      36.41697000      36.19367000      35.96653000      35.73385000      35.54323000      35.36657000      35.17863000      34.98884000      34.93169000      34.86886000      34.78310000      34.67562000      34.52444000      34.64090000      34.71267000      34.76075000      34.78600000
          36.57956000      36.50175000      36.38367000      36.21194000      35.98752000      35.74812000      35.48937000      35.37252000      35.25637000      35.12314000      34.99435000      34.90743000      34.82803000      34.73979000      34.63800000      34.49699000      34.61100000      34.68203000      34.73012000      34.75581000
          36.39600000      36.31820000      36.18972000      36.01350000      35.80268000      35.52117000      35.08759000      35.18842000      35.13417000      35.03893000      34.93771000      34.84914000      34.76631000      34.68266000      34.58997000      34.46468000      34.57493000      34.64643000      34.69475000      34.72027000
          36.25286000      36.16978000      36.03728000      35.87311000      35.65221000      35.44157000      35.20411000      35.11414000      35.02921000      34.93572000      34.84221000      34.75760000      34.67955000      34.60604000      34.52990000      34.42518000      34.53398000      34.60543000      34.65471000      34.68024000
          36.17081000      36.04066000      35.89279000      35.69155000      35.51811000      35.32841000      35.14410000      35.01160000      34.91057000      34.80958000      34.71471000      34.63011000      34.55908000      34.50354000      34.45274000      34.37810000      34.48540000      34.55949000      34.61011000      34.63812000
        -999.99000000      35.90463000      35.73787000      35.53455000      35.35712000      35.17630000      35.00745000      34.87202000      34.75538000      34.64966000      34.55107000      34.46355000      34.39206000      34.36852000      34.35570000      34.32166000      34.42996000      34.50801000      34.56224000      34.59267000
        -999.99000000    -999.99000000      35.56330000      35.34909000      35.15476000      34.97851000      34.81498000      34.68706000      34.56829000      34.45504000      34.35249000      34.24910000      34.15293000      34.19413000      34.23855000      34.25694000      34.36774000      34.45018000      34.51122000      34.54910000
        -999.99000000    -999.99000000    -999.99000000      35.14732000      34.90260000      34.73111000      34.59071000      34.46358000      34.33847000      34.23349000      34.12971000      33.99575000      33.75060000      33.98838000      34.10972000      34.18601000      34.29762000      34.38538000      34.45293000      34.51594000
        -999.99000000    -999.99000000    -999.99000000    -999.99000000      34.57390000      34.43424000      34.29758000      34.17041000      34.06873000      33.98272000      33.90360000      33.82983000      33.77616000      33.87508000      33.99279000      34.11198000      34.22020000      34.30978000      34.36960000    -999.99000000
        -999.99000000    -999.99000000    -999.99000000    -999.99000000      34.35934000      34.09631000      33.94988000      33.82898000      33.75453000      33.69426000      33.64426000      33.61447000      33.62391000      33.71074000      33.84704000      34.02598000      34.13448000      34.23598000      34.31728000    -999.99000000
        -999.99000000    -999.99000000    -999.99000000    -999.99000000    -999.99000000      33.57681000      33.50724000      33.44593000      33.40370000      33.36346000      33.33810000      33.33397000      33.36499000      33.45819000      33.63553000      33.92045000      34.03697000      34.15077000    -999.99000000    -999.99000000
        -999.99000000    -999.99000000    -999.99000000    -999.99000000    -999.99000000      33.07143000      33.05855000      33.02934000      33.00418000      32.98454000      32.97380000      32.97998000      33.01069000      33.09264000      33.29174000      33.80747000      33.92665000    -999.99000000    -999.99000000    -999.99000000
        -999.99000000    -999.99000000    -999.99000000    -999.99000000    -999.99000000      32.52221000      32.52128000      32.52212000      32.52125000      32.52111000      32.52133000      32.52155000      32.52309000      32.52704000      32.53410000    -999.99000000    -999.99000000    -999.99000000    -999.99000000    -999.99000000
    INTERNAL  FACTOR  1.0  IPRN  1
          39.42851000      39.36053000      39.21686000      39.00139000      38.76796000      38.50306000      38.17786000      37.89872000      37.56259000      37.22223000      36.89541000      36.57198000      36.23857000      35.87502000      35.49771000      35.10670000      35.20208000      35.27232000      35.31750000      35.34235000
          39.44313000      39.36700000      39.22453000      39.00288000      38.77754000      38.50801000      38.18301000      37.88337000      37.55488000      37.19690000      36.87136000      36.55248000      36.22022000      35.85813000      35.49275000      35.10160000      35.19283000      35.26438000      35.30993000      35.33381000
          39.46669000      39.39503000      39.24219000      39.01588000      38.79163000      38.51263000      38.17165000      37.86940000      37.51863000      37.17043000      36.82870000      36.51323000      36.18036000      35.83212000      35.47891000      35.08659000      35.17755000      35.24694000      35.29263000      35.31676000
          39.50610000      39.43409000      39.28168000      39.04752000      38.80529000      38.52215000      38.16166000      37.83394000      37.48998000      37.09559000      36.75896000      36.44945000      36.12693000      35.79570000      35.44385000      35.07549000      35.15944000      35.22245000      35.26719000      35.28979000
          39.56211000      39.48248000      39.32512000      39.09768000      38.83786000      38.51590000      38.15063000      37.81987000      37.40201000      37.01546000      36.68552000      36.38004000      36.06704000      35.74491000      35.40277000      35.05224000      35.12310000      35.18740000      35.22979000      35.25262000
          39.62172000      39.55474000      39.39236000      39.15500000      38.87437000      38.53386000      38.14831000      37.72932000      37.33914000      36.92757000      36.57608000      36.29060000      35.99095000      35.68078000      35.35398000      35.01392000      35.07977000      35.13691000      35.18350000      35.20793000