ptf ~
BEGIN Options
  READASARRAYS
  SAVE_FLOWS
END Options

BEGIN PERIOD  1
  recharge
   constant ~     rch_0     ~
END PERIOD  1

BEGIN PERIOD  2
  recharge
   constant ~     rch_1     ~
END PERIOD  2

BEGIN PERIOD  3
  recharge
   constant ~     rch_2     ~
END PERIOD  3

BEGIN PERIOD  4
  recharge
   constant ~     rch_3     ~
END PERIOD  4

BEGIN PERIOD  5
  recharge
   constant ~     rch_4     ~
END PERIOD  5

BEGIN PERIOD  6
  recharge
   constant ~     rch_5     ~
END PERIOD  6

BEGIN PERIOD  7
  recharge
   constant ~     rch_6     ~
END PERIOD  7

BEGIN PERIOD  8
  recharge
   constant ~     rch_7     ~
END PERIOD  8

BEGIN PERIOD  9
  recharge
   constant ~     rch_8     ~
END PERIOD  9

BEGIN PERIOD  10
  recharge
   constant ~     rch_9     ~
END PERIOD  10

BEGIN PERIOD  11
  recharge
   constant ~     rch_10     ~
END PERIOD  11

BEGIN PERIOD  12
  recharge
   constant ~     rch_11     ~
END PERIOD  12

BEGIN PERIOD  13
  recharge
   constant ~     rch_12     ~
END PERIOD  13

BEGIN PERIOD  14
  recharge
   constant ~     rch_13     ~
END PERIOD  14

BEGIN PERIOD  15
  recharge
   constant ~     rch_14     ~
END PERIOD  15

BEGIN PERIOD  16
  recharge
   constant ~     rch_15     ~
END PERIOD  16

BEGIN PERIOD  17
  recharge
   constant ~     rch_16     ~
END PERIOD  17

BEGIN PERIOD  18
  recharge
   constant ~     rch_17     ~
END PERIOD  18

BEGIN PERIOD  19
  recharge
   constant ~     rch_18     ~
END PERIOD  19

BEGIN PERIOD  20
  recharge
   constant ~     rch_19     ~
END PERIOD  20

BEGIN PERIOD  21
  recharge
   constant ~     rch_20     ~
END PERIOD  21

BEGIN PERIOD  22
  recharge
   constant ~     rch_21     ~
END PERIOD  22

BEGIN PERIOD  23
  recharge
   constant ~     rch_22     ~
END PERIOD  23

BEGIN PERIOD  24
  recharge
   constant ~     rch_23     ~
END PERIOD  24

BEGIN PERIOD  25
  recharge
   constant ~     rch_24     ~
END PERIOD  25

