BEGIN Options
  PRINT_INPUT
  PRINT_FLOWS
  SAVE_FLOWS
END Options

BEGIN Dimensions
  MAXBOUND  6
END Dimensions

BEGIN PERIOD  1
3 10 17 -1.574999999999999e+02
3 12 14 -1.5749999999999994e+02
3 21 15 -1.5749999999999994e+02
3 27 11 -1.5749999999999994e+02
3 30 7 -1.574999999999999e+02
3 35 13 -1.5749999999999994e+02
END PERIOD  1

BEGIN PERIOD  2
3 10 17 -56.449350000000016792
3 12 14 -56.4493500000000167915
3 21 15 -56.4493500000000167915
3 27 11 -56.4493500000000167915
3 30 7 -56.449350000000016792
3 35 13 -56.4493500000000167915
END PERIOD  2

BEGIN PERIOD  3
3 10 17 -62.632107000000004859
3 12 14 -62.6321070000000048594
3 21 15 -62.6321070000000048594
3 27 11 -62.6321070000000048594
3 30 7 -62.632107000000004859
3 35 13 -62.6321070000000048594
END PERIOD  3

BEGIN PERIOD  4
3 10 17 -96.436718999999982316
3 12 14 -96.4367189999999823158
3 21 15 -96.4367189999999823158
3 27 11 -96.4367189999999823158
3 30 7 -96.436718999999982316
3 35 13 -96.4367189999999823158
END PERIOD  4

BEGIN PERIOD  5
3 10 17 -1.480205880000000e+02
3 12 14 -1.4802058800000003e+02
3 21 15 -1.4802058800000003e+02
3 27 11 -1.4802058800000003e+02
3 30 7 -1.480205880000000e+02
3 35 13 -1.4802058800000003e+02
END PERIOD  5

BEGIN PERIOD  6
3 10 17 -2.023644690000001e+02
3 12 14 -2.0236446900000010e+02
3 21 15 -2.0236446900000010e+02
3 27 11 -2.0236446900000010e+02
3 30 7 -2.023644690000001e+02
3 35 13 -2.0236446900000010e+02
END PERIOD  6

BEGIN PERIOD  7
3 10 17 -2.436456149999999e+02
3 12 14 -2.4364561499999994e+02
3 21 15 -2.4364561499999994e+02
3 27 11 -2.4364561499999994e+02
3 30 7 -2.436456149999999e+02
3 35 13 -2.4364561499999994e+02
END PERIOD  7

BEGIN PERIOD  8
3 10 17 -2.624428800000000e+02
3 12 14 -2.6244288000000000e+02
3 21 15 -2.6244288000000000e+02
3 27 11 -2.6244288000000000e+02
3 30 7 -2.624428800000000e+02
3 35 13 -2.6244288000000000e+02
END PERIOD  8

BEGIN PERIOD  9
3 10 17 -2.598444540000000e+02
3 12 14 -2.5984445400000004e+02
3 21 15 -2.5984445400000004e+02
3 27 11 -2.5984445400000004e+02
3 30 7 -2.598444540000000e+02
3 35 13 -2.5984445400000004e+02
END PERIOD  9

BEGIN PERIOD  10
3 10 17 -2.462445630000000e+02
3 12 14 -2.4624456300000003e+02
3 21 15 -2.4624456300000003e+02
3 27 11 -2.4624456300000003e+02
3 30 7 -2.462445630000000e+02
3 35 13 -2.4624456300000003e+02
END PERIOD  10

BEGIN PERIOD  11
3 10 17 -2.0680571699999993e+02
3 12 14 -2.06805716999999930e+02
3 21 15 -2.06805716999999930e+02
3 27 11 -2.06805716999999930e+02
3 30 7 -2.0680571699999993e+02
3 35 13 -2.06805716999999930e+02
END PERIOD  11

BEGIN PERIOD  12
3 10 17 -1.5301096200000006e+02
3 12 14 -1.53010962000000063e+02
3 21 15 -1.53010962000000063e+02
3 27 11 -1.53010962000000063e+02
3 30 7 -1.5301096200000006e+02
3 35 13 -1.53010962000000063e+02
END PERIOD  12

BEGIN PERIOD  13
3 10 17 -1.0052322300000000e+02
3 12 14 -1.00523223000000002e+02
3 21 15 -1.00523223000000002e+02
3 27 11 -1.00523223000000002e+02
3 30 7 -1.0052322300000000e+02
3 35 13 -1.00523223000000002e+02
END PERIOD  13

BEGIN PERIOD  14
3 10 17 -64.6249230000000096652
3 12 14 -64.62492300000000966520
3 21 15 -64.62492300000000966520
3 27 11 -64.62492300000000966520
3 30 7 -64.6249230000000096652
3 35 13 -64.62492300000000966520
END PERIOD  14

BEGIN PERIOD  15
3 10 17 -55.7682426000000006638
3 12 14 -55.76824260000000066384
3 21 15 -55.76824260000000066384
3 27 11 -55.76824260000000066384
3 30 7 -55.7682426000000006638
3 35 13 -55.76824260000000066384
END PERIOD  15

BEGIN PERIOD  16
3 10 17 -76.5318959999999890442
3 12 14 -76.53189599999998904423
3 21 15 -76.53189599999998904423
3 27 11 -76.53189599999998904423
3 30 7 -76.5318959999999890442
3 35 13 -76.53189599999998904423
END PERIOD  16

BEGIN PERIOD  17
3 10 17 -1.2087031500000003e+02
3 12 14 -1.20870315000000033e+02
3 21 15 -1.20870315000000033e+02
3 27 11 -1.20870315000000033e+02
3 30 7 -1.2087031500000003e+02
3 35 13 -1.20870315000000033e+02
END PERIOD  17

BEGIN PERIOD  18
3 10 17 -1.7587389600000006e+02
3 12 14 -1.75873896000000059e+02
3 21 15 -1.75873896000000059e+02
3 27 11 -1.75873896000000059e+02
3 30 7 -1.7587389600000006e+02
3 35 13 -1.75873896000000059e+02
END PERIOD  18

BEGIN PERIOD  19
3 10 17 -2.2552768800000007e+02
3 12 14 -2.25527688000000069e+02
3 21 15 -2.25527688000000069e+02
3 27 11 -2.25527688000000069e+02
3 30 7 -2.2552768800000007e+02
3 35 13 -2.25527688000000069e+02
END PERIOD  19

BEGIN PERIOD  20
3 10 17 -2.5537445999999997e+02
3 12 14 -2.55374459999999971e+02
3 21 15 -2.55374459999999971e+02
3 27 11 -2.55374459999999971e+02
3 30 7 -2.5537445999999997e+02
3 35 13 -2.55374459999999971e+02
END PERIOD  20

BEGIN PERIOD  21
3 10 17 -2.5672401000000013e+02
3 12 14 -2.56724010000000135e+02
3 21 15 -2.56724010000000135e+02
3 27 11 -2.56724010000000135e+02
3 30 7 -2.5672401000000013e+02
3 35 13 -2.56724010000000135e+02
END PERIOD  21

BEGIN PERIOD  22
3 10 17 -2.2918334399999992e+02
3 12 14 -2.29183343999999920e+02
3 21 15 -2.29183343999999920e+02
3 27 11 -2.29183343999999920e+02
3 30 7 -2.2918334399999992e+02
3 35 13 -2.29183343999999920e+02
END PERIOD  22

BEGIN PERIOD  23
3 10 17 -1.8077130899999995e+02
3 12 14 -1.80771308999999945e+02
3 21 15 -1.80771308999999945e+02
3 27 11 -1.80771308999999945e+02
3 30 7 -1.8077130899999995e+02
3 35 13 -1.80771308999999945e+02
END PERIOD  23

BEGIN PERIOD  24
3 10 17 -1.2558355200000005e+02
3 12 14 -1.25583552000000054e+02
3 21 15 -1.25583552000000054e+02
3 27 11 -1.25583552000000054e+02
3 30 7 -1.2558355200000005e+02
3 35 13 -1.25583552000000054e+02
END PERIOD  24

BEGIN PERIOD  25
3 10 17 -79.6886235000000056061
3 12 14 -79.68862350000000560613
3 21 15 -79.68862350000000560613
3 27 11 -79.68862350000000560613
3 30 7 -79.6886235000000056061
3 35 13 -79.68862350000000560613
END PERIOD  25

