# WEL package for  MODFLOW-NWT, generated by Flopy.
         6        50
         6         0 # stress period 1
         open/close .\WEL_0000.dat
         6         0 # stress period 2
         open/close .\WEL_0001.dat
         6         0 # stress period 3
         open/close .\WEL_0002.dat
