pcf
* control data
             restart          estimation
        11        20         1         0         1         0
         2         1              single               point         1         0         0          noobsreref
   1.000000E-01  -4.000000E+00   3.000000E-01   3.000000E-02        10       999          lamforgive        noderforgive
   5.000000E+00   5.000000E+00   1.000000E-03         0         0
   1.000000E-01         1   1.100000E+00               noaui          nosenreuse        noboundscale
         3   5.000000E-03         4         4   5.000000E-03         4   0.000000E+00         1  -1.000000E+00
         1         1         1         0             jcosave          verboserec          jcosaveitn          reisaveitn          parsaveitn        noparsaverun
* singular value decomposition
         1
         1    1.000000E-03
0
* parameter groups
k                       relative              1.0000000000E-02       0.0  switch                2.0000000000E+00       parabolic             1.0000000000E-05      5.0000000000E-01       smaller
* parameter data
stage                  fixed                  factor                1.0000000000E+00      1.0000000000E-01      3.0000000000E+00       k                     1.0000000000E+00      0.0000000000E+00      1          
k_01                   fixed                  factor                2.5000000000E+00      2.5000000000E-01      2.5000000000E+01       k                     1.0000000000E+00      0.0000000000E+00      1          
k_02                   log                    factor                2.5000000000E+00      2.5000000000E-01      2.5000000000E+01       k                     1.0000000000E+00      0.0000000000E+00      1          
k_03                   log                    factor                2.5000000000E+00      2.5000000000E-01      2.5000000000E+01       k                     1.0000000000E+00      0.0000000000E+00      1          
k_04                   log                    factor                2.5000000000E+00      2.5000000000E-01      2.5000000000E+01       k                     1.0000000000E+00      0.0000000000E+00      1          
k_05                   log                    factor                2.5000000000E+00      2.5000000000E-01      2.5000000000E+01       k                     1.0000000000E+00      0.0000000000E+00      1          
k_06                   log                    factor                2.5000000000E+00      2.5000000000E-01      2.5000000000E+01       k                     1.0000000000E+00      0.0000000000E+00      1          
k_07                   log                    factor                2.5000000000E+00      2.5000000000E-01      2.5000000000E+01       k                     1.0000000000E+00      0.0000000000E+00      1          
k_08                   log                    factor                2.5000000000E+00      2.5000000000E-01      2.5000000000E+01       k                     1.0000000000E+00      0.0000000000E+00      1          
k_09                   log                    factor                2.5000000000E+00      2.5000000000E-01      2.5000000000E+01       k                     1.0000000000E+00      0.0000000000E+00      1          
k_10                   log                    factor                2.5000000000E+00      2.5000000000E-01      2.5000000000E+01       k                     1.0000000000E+00      0.0000000000E+00      1
* observation groups
head                 
* observation data
h01_01                1.5000000000E+00      0.0000000000E+00       head                 
h01_02                1.7000000000E+00      0.0000000000E+00       head                 
h01_03                1.9000000000E+00      0.0000000000E+00       head                 
h01_04                2.1000000000E+00      1.0000000000E+00       head                 
h01_05                2.3000000000E+00      0.0000000000E+00       head                 
h01_06                2.5000000000E+00      1.0000000000E+00       head                 
h01_07                2.7000000000E+00      0.0000000000E+00       head                 
h01_08                2.9000000000E+00      0.0000000000E+00       head                 
h01_09                3.1000000000E+00      0.0000000000E+00       head                 
h01_10                3.3000000000E+00      0.0000000000E+00       head                 
h02_01                1.5000000000E+00      0.0000000000E+00       head                 
h02_02                1.9000000000E+00      0.0000000000E+00       head                 
h02_03                2.3000000000E+00      0.0000000000E+00       head                 
h02_04                2.7000000000E+00      0.0000000000E+00       head                 
h02_05                3.1000000000E+00      0.0000000000E+00       head                 
h02_06                3.5000000000E+00      0.0000000000E+00       head                 
h02_07                3.9000000000E+00      0.0000000000E+00       head                 
h02_08                4.3000000000E+00      0.0000000000E+00       head                 
h02_09                4.7000000000E+00      0.0000000000E+00       head                 
h02_10                5.1000000000E+00      0.0000000000E+00       head
* model command line
mfnwt 10par_xsec.nam
* model input/output
hk_Layer_1.ref.tpl hk_Layer_1.ref
strt_Layer_1.ref.tpl strt_Layer_1.ref
10par_xsec.hds.ins 10par_xsec.hds
