# Well file for MODFLOW, generated by Flopy.
         6         0
         6         0 # stress period 0
         1         9        16  -708.480000  0.000000
         1        11        13  -354.240000  0.000000
         1        20        14  -336.960000  0.000000
         1        26        10  -71.7120000  0.000000
         1        29         6  -62.2080000  0.000000
         1        34        12  -371.520000  0.000000
         6         0 # stress period 1
         1         9        16  -885.600000  0.000000
         1        11        13  -442.800000  0.000000
         1        20        14  -421.200000  0.000000
         1        26        10  -89.6400000  0.000000
         1        29         6  -77.7600000  0.000000
         1        34        12  -464.400000  0.000000
         6         0 # stress period 2
         1         9        16  -885.600000  0.000000
         1        11        13  -442.800000  0.000000
         1        20        14  -421.200000  0.000000
         1        26        10  -89.6400000  0.000000
         1        29         6  -77.7600000  0.000000
         1        34        12  -464.400000  0.000000
