# RIV for MODFLOW, generated by Flopy.
        40         0
        40         0 # stress period 0
         1         1        15 20.100000 4904.3720 20.000000  0.000000
         1         2        15 19.870001 4904.3720 19.750000  0.000000
         1         3        15 19.650000 4904.3720 19.500000  0.000000
         1         4        15 19.420000 4904.3720 19.250000  0.000000
         1         5        15 19.190001 4904.3720 19.000000  0.000000
         1         6        15 18.969999 4904.3720 18.750000  0.000000
         1         7        15 18.740000 4904.3720 18.500000  0.000000
         1         8        15 18.510000 4904.3720 18.250000  0.000000
         1         9        15 18.280001 4904.3720 18.000000  0.000000
         1        10        15 19.059999 4904.3720 17.750000  0.000000
         1        11        15 17.830000 4904.3720 17.500000  0.000000
         1        12        15 17.600000 4904.3720 17.250000  0.000000
         1        13        15 17.379999 4904.3720 17.000000  0.000000
         1        14        15 17.150000 4904.3720 16.750000  0.000000
         1        15        15 16.920000 4904.3720 16.500000  0.000000
         1        16        15 16.700001 4904.3720 16.250000  0.000000
         1        17        15 16.469999 4904.3720 16.000000  0.000000
         1        18        15 16.240000 4904.3720 15.750000  0.000000
         1        19        15 16.020000 4904.3720 15.500000  0.000000
         1        20        15 15.790000 4904.3720 15.250000  0.000000
         1        21        15 15.560000 4904.3720 15.000000  0.000000
         1        22        15 15.330000 4904.3720 14.750000  0.000000
         1        23        15 15.110000 4904.3720 14.500000  0.000000
         1        24        15 14.880000 4904.3720 14.250000  0.000000
         1        25        15 14.650000 4904.3720 14.000000  0.000000
         1        26        15 14.430000 4904.3720 13.750000  0.000000
         1        27        15 14.200000 4904.3720 13.500000  0.000000
         1        28        15 13.970000 4904.3720 13.250000  0.000000
         1        29        15 13.750000 4904.3720 13.000000  0.000000
         1        30        15 13.520000 4904.3720 12.750000  0.000000
         1        31        15 13.290000 4904.3720 12.500000  0.000000
         1        32        15 13.070000 4904.3720 12.250000  0.000000
         1        33        15 12.840000 4904.3720 12.000000  0.000000
         1        34        15 12.610000 4904.3720 11.750000  0.000000
         1        35        15 12.380000 4904.3720 11.500000  0.000000
         1        36        15 12.160000 4904.3720 11.250000  0.000000
         1        37        15 11.930000 4904.3720 11.000000  0.000000
         1        38        15 11.700000 4904.3720 10.750000  0.000000
         1        39        15 11.480000 4904.3720 10.500000  0.000000
         1        40        15 11.250000 4904.3720 10.250000  0.000000
        -1         0 # stress period 1
        -1         0 # stress period 2
