# RCH for MODFLOW, generated by Flopy.
         3         0
         1        -1 # Stress period 1
OPEN/CLOSE                  ref\rech_0.ref               1  (20G15.6) -1 rech_1                        
         1        -1 # Stress period 2
OPEN/CLOSE                  ref\rech_1.ref               1  (20G15.6) -1 rech_2                        
         1        -1 # Stress period 3
OPEN/CLOSE                  ref\rech_2.ref               1  (20G15.6) -1 rech_3                        
