# SFR package for  MODFLOW-2005, generated by Flopy.
40 3 0 0 128390.00000000 0.00010000 -1 81 
1 13 1 1 1 200.0
1 13 2 1 2 200.0
1 14 3 1 3 200.0
1 15 4 1 4 200.0
1 16 5 1 5 200.0
1 16 6 1 6 200.0
1 16 7 1 7 200.0
1 16 8 1 8 200.0
1 16 9 1 9 200.0
1 16 10 1 10 200.0
1 16 11 1 11 200.0
1 16 12 1 12 200.0
1 15 13 1 13 200.0
1 14 14 1 14 200.0
1 13 15 1 15 200.0
1 12 16 1 16 200.0
1 12 17 1 17 200.0
1 12 18 1 18 200.0
1 12 19 1 19 200.0
1 13 20 1 20 200.0
1 14 21 1 21 200.0
1 14 22 1 22 200.0
1 9 30 2 1 200.0
1 9 29 2 2 200.0
1 9 28 2 3 200.0
1 9 27 2 4 200.0
1 10 26 2 5 200.0
1 11 25 2 6 200.0
1 12 24 2 7 200.0
1 13 23 2 8 200.0
1 14 22 2 9 200.0
1 14 22 3 1 200.0
1 15 23 3 2 200.0
1 15 24 3 3 200.0
1 15 25 3 4 200.0
1 15 26 3 5 200.0
1 16 27 3 6 200.0
1 17 28 3 7 200.0
1 18 29 3 8 200.0
1 18 30 3 9 200.0
3 0 0 0
1 1 2 0 100000.0 0 0 0 0.05000000074505806 
5.0 1.0 30614974286400.0 25600000000.0 
5.0 1.0 4347792138496.0 25600000000.0 
2 1 3 0 50000.0 0 0 0 0.05000000074505806 
5.0 1.0 6888538283006.25 25600000000.0 
5.0 1.0 4347792138496.0 25600000000.0 
3 1 0 0 0 0 0 0 0.05000000074505806 
5.0 1.0 4347792138496.0 25600000000.0 
5.0 1.0 656100000000.0 25600000000.0 
-3 0 0 0
-3 0 0 0
-3 0 0 0
-3 0 0 0
-3 0 0 0
-3 0 0 0
-3 0 0 0
-3 0 0 0
-3 0 0 0
-3 0 0 0
-3 0 0 0
