# DIS package for  MODFLOW-NWT, generated by Flopy.
         1        50        50         2         4         2
  0
CONSTANT    5.000000E+01                           #delr                          
CONSTANT    5.000000E+01                           #delc                          
CONSTANT    5.000000E+01                           #model_top                     
CONSTANT    0.000000E+00                           #botm layer 1                  
      1.000000             1  1.000000  SS 
     40.000000            40  1.000000  TR 
