# RIV for MODFLOW, generated by Flopy.
        40         0
        40         0 # stress period 0
         1         1        15 20.100000 2262.809570 20.000000  0.000000
         1         2        15 19.870001 5255.834961 19.750000  0.000000
         1         3        15 19.650000 5123.994629 19.500000  0.000000
         1         4        15 19.420000 6476.518555 19.250000  0.000000
         1         5        15 19.190001 3942.536865 19.000000  0.000000
         1         6        15 18.969999 1469.835815 18.750000  0.000000
         1         7        15 18.740000 1844.688721 18.500000  0.000000
         1         8        15 18.510000 3248.889893 18.250000  0.000000
         1         9        15 18.280001 5541.192871 18.000000  0.000000
         1        10        15 19.059999 5714.499512 17.750000  0.000000
         1        11        15 17.830000 5280.313477 17.500000  0.000000
         1        12        15 17.600000 6297.982422 17.250000  0.000000
         1        13        15 17.379999 3433.340332 17.000000  0.000000
         1        14        15 17.150000 4031.775146 16.750000  0.000000
         1        15        15 16.920000 8096.818359 16.500000  0.000000
         1        16        15 16.700001 6207.698730 16.250000  0.000000
         1        17        15 16.469999 4792.523438 16.000000  0.000000
         1        18        15 16.240000 7944.267578 15.750000  0.000000
         1        19        15 16.020000 8895.833008 15.500000  0.000000
         1        20        15 15.790000 5492.111328 15.250000  0.000000
         1        21        15 15.560000 5461.965332 15.000000  0.000000
         1        22        15 15.330000 5638.295898 14.750000  0.000000
         1        23        15 15.110000 7077.810547 14.500000  0.000000
         1        24        15 14.880000 6468.176270 14.250000  0.000000
         1        25        15 14.650000 3842.095703 14.000000  0.000000
         1        26        15 14.430000 2649.697754 13.750000  0.000000
         1        27        15 14.200000 1569.015747 13.500000  0.000000
         1        28        15 13.970000 2319.031006 13.250000  0.000000
         1        29        15 13.750000 4407.562012 13.000000  0.000000
         1        30        15 13.520000 3508.939209 12.750000  0.000000
         1        31        15 13.290000 3551.883789 12.500000  0.000000
         1        32        15 13.070000 3835.308594 12.250000  0.000000
         1        33        15 12.840000 5131.004395 12.000000  0.000000
         1        34        15 12.610000 5295.542480 11.750000  0.000000
         1        35        15 12.380000 3233.627441 11.500000  0.000000
         1        36        15 12.160000 3494.095947 11.250000  0.000000
         1        37        15 11.930000 5747.663574 11.000000  0.000000
         1        38        15 11.700000 7602.311035 10.750000  0.000000
         1        39        15 11.480000 7388.273438 10.500000  0.000000
         1        40        15 11.250000 6599.120117 10.250000  0.000000
        -1         0 # stress period 1
        -1         0 # stress period 2
