MODPATH_PATHLINE_FILE 6 0                                                       
 1   0.000000000000000E+00
END HEADER
         1     1    -1     2   0.182600000000000E+04   0.625000000000000E+03   0.637500000000000E+04   0.350000000000000E+02    1   15    3  1  0.5000000E+00   0.5000000E+00   0.1000000E+01     1
         1     1    -1     3   0.182600000000000E+04   0.625000000000000E+03   0.637500000000000E+04   0.350000000000000E+02    1   15    3  1  0.5000000E+00   0.5000000E+00   0.1000000E+01     2
         1     1    -1     3   0.233168970033330E+04   0.635046989427805E+03   0.625000000000000E+04   0.349754090000000E+02    1   16    3  1  0.5401880E+00   0.1000000E+01   0.9990000E+00     2
         1     1    -1     3   0.314270580426200E+04   0.646020889975563E+03   0.600000000000000E+04   0.349742241000000E+02    1   17    3  1  0.5840836E+00   0.1000000E+01   0.9990000E+00     2
         1     1    -1     3   0.380895051604925E+04   0.637488157090646E+03   0.575000000000000E+04   0.349719156000000E+02    1   18    3  1  0.5499526E+00   0.1000000E+01   0.9990000E+00     2
         1     1    -1     3   0.438756691507614E+04   0.640694010388701E+03   0.550000000000000E+04   0.349710632000000E+02    1   19    3  1  0.5627760E+00   0.1000000E+01   0.9990000E+00     2
         1     1    -1     3   0.486279804930656E+04   0.646382243603059E+03   0.525000000000000E+04   0.349689943000000E+02    1   20    3  1  0.5855290E+00   0.1000000E+01   0.9990000E+00     2
         1     1    -1     3   0.528876871104150E+04   0.656364876529101E+03   0.500000000000000E+04   0.349728784000000E+02    1   21    3  1  0.6254595E+00   0.1000000E+01   0.9990000E+00     2
         1     1    -1     3   0.562771602436814E+04   0.680387527715172E+03   0.475000000000000E+04   0.349697303000000E+02    1   22    3  1  0.7215501E+00   0.1000000E+01   0.9990000E+00     2
         1     1    -1     3   0.597942542576565E+04   0.720255817054369E+03   0.450000000000000E+04   0.349704725000000E+02    1   23    3  1  0.8810233E+00   0.1000000E+01   0.9990000E+00     2
         1     1    -1     3   0.607365589593581E+04   0.750000000000000E+03   0.442913207264776E+04   0.349736354000000E+02    1   23    4  1  0.0000000E+00   0.7165283E+00   0.9990000E+00     2
         1     1    -1     3   0.631005049460751E+04   0.849501476821877E+03   0.425000000000000E+04   0.349743852000000E+02    1   24    4  1  0.3980059E+00   0.1000000E+01   0.9990000E+00     2
         1     1    -1     3   0.656114365188242E+04   0.100000000000000E+04   0.409091468810002E+04   0.349760120000000E+02    1   24    5  1  0.0000000E+00   0.3636588E+00   0.9990000E+00     2
         1     1    -1     3   0.672020105567715E+04   0.112965886881970E+04   0.400000000000000E+04   0.349761070000000E+02    1   25    5  1  0.5186355E+00   0.1000000E+01   0.9990000E+00     2
         1     1    -1     3   0.688033698791929E+04   0.125000000000000E+04   0.391992446655560E+04   0.349702416000000E+02    1   25    6  1  0.0000000E+00   0.6796979E+00   0.9990000E+00     2
         1     1    -1     3   0.723744119065786E+04   0.150000000000000E+04   0.385377339820922E+04   0.349707991000000E+02    1   25    7  1  0.0000000E+00   0.4150936E+00   0.9990000E+00     2
         1     1    -1     3   0.757576702201169E+04   0.175000000000000E+04   0.385261268956307E+04   0.349706034000000E+02    1   25    8  1  0.0000000E+00   0.4104508E+00   0.9990000E+00     2
         1     1    -1     3   0.795795142270152E+04   0.200000000000000E+04   0.386808906222471E+04   0.349717668000000E+02    1   25    9  1  0.0000000E+00   0.4723562E+00   0.9990000E+00     2
         1     1    -1     3   0.835690761776696E+04   0.225000000000000E+04   0.388544219388839E+04   0.349667813000000E+02    1   25   10  1  0.0000000E+00   0.5417688E+00   0.9990000E+00     2
         1     1    -1     3   0.874781911722550E+04   0.250000000000000E+04   0.393337094895378E+04   0.349656455100000E+02    1   25   11  1  0.0000000E+00   0.7334838E+00   0.9990000E+00     2
         1     1    -1     3   0.908009273257969E+04   0.275000000000000E+04   0.392966024376873E+04   0.349653463200000E+02    1   25   12  1  0.0000000E+00   0.7186410E+00   0.9990000E+00     2
         1     1    -1     3   0.939969882250208E+04   0.300000000000000E+04   0.389572788022651E+04   0.349653345700000E+02    1   25   13  1  0.0000000E+00   0.5829115E+00   0.9990000E+00     2
         1     1    -1     3   0.969988817032702E+04   0.325000000000000E+04   0.384638007591015E+04   0.349656103700000E+02    1   25   14  1  0.0000000E+00   0.3855203E+00   0.9990000E+00     2
         1     1    -1     3   0.997971604481934E+04   0.350000000000000E+04   0.379140549607452E+04   0.349652986600000E+02    1   25   15  1  0.0000000E+00   0.1656220E+00   0.9990000E+00     2
         1     1    -1     3   0.101714177977338E+05   0.361490587177142E+04   0.375000000000000E+04   0.349654726000000E+02    1   26   15  1  0.4596235E+00   0.1000000E+01   0.9990000E+00     2
         1     1    -1     3   0.113120397824777E+05   0.369336123143764E+04   0.350000000000000E+04   0.349653847600000E+02    1   27   15  1  0.7734449E+00   0.1000000E+01   0.9990000E+00     2
         1     1    -1     3   0.124530342679683E+05   0.369515072818249E+04   0.325000000000000E+04   0.349652102900000E+02    1   28   15  1  0.7806029E+00   0.1000000E+01   0.9990000E+00     2
         1     1    -1     3   0.136319063621083E+05   0.369619865070202E+04   0.300000000000000E+04   0.349656895600000E+02    1   29   15  1  0.7847946E+00   0.1000000E+01   0.9990000E+00     2
         1     1    -1     3   0.148275152939576E+05   0.369800392944390E+04   0.275000000000000E+04   0.349650139450000E+02    1   30   15  1  0.7920157E+00   0.1000000E+01   0.9990000E+00     2
         1     1    -1     3   0.160350619161844E+05   0.369876928438481E+04   0.250000000000000E+04   0.349654124600000E+02    1   31   15  1  0.7950771E+00   0.1000000E+01   0.9990000E+00     2
         1     1    -1     3   0.172647385159677E+05   0.369956058329286E+04   0.225000000000000E+04   0.349655694900000E+02    1   32   15  1  0.7982423E+00   0.1000000E+01   0.9990000E+00     2
         1     1    -1     3   0.185406778427785E+05   0.370294369293093E+04   0.200000000000000E+04   0.349657109100000E+02    1   33   15  1  0.8117748E+00   0.1000000E+01   0.9990000E+00     2
         1     1    -1     3   0.198221284074251E+05   0.370533179043407E+04   0.175000000000000E+04   0.349656923200000E+02    1   34   15  1  0.8213272E+00   0.1000000E+01   0.9990000E+00     2
         1     1    -1     3   0.211217593678166E+05   0.370724280786972E+04   0.150000000000000E+04   0.349655878800000E+02    1   35   15  1  0.8289712E+00   0.1000000E+01   0.9990000E+00     2
         1     1    -1     3   0.224573935466653E+05   0.370371175171301E+04   0.125000000000000E+04   0.349652502700000E+02    1   36   15  1  0.8148470E+00   0.1000000E+01   0.9990000E+00     2
         1     1    -1     3   0.238045990504662E+05   0.369684362231619E+04   0.100000000000000E+04   0.349650649440000E+02    1   37   15  1  0.7873745E+00   0.1000000E+01   0.9990000E+00     2
         1     1    -1     3   0.251330630735303E+05   0.368647118462521E+04   0.750000000000000E+03   0.349653715100000E+02    1   38   15  1  0.7458847E+00   0.1000000E+01   0.9990000E+00     2
         1     1    -1     3   0.265210840461289E+05   0.367660377105683E+04   0.500000000000000E+03   0.349656749200000E+02    1   39   15  1  0.7064151E+00   0.1000000E+01   0.9990000E+00     2
         1     1    -1     3   0.286356701163123E+05   0.366144175774892E+04   0.250000000000000E+03   0.349655059900000E+02    1   40   15  1  0.6457670E+00   0.1000000E+01   0.9990000E+00     2
         1     1    -1     3   0.286356701163123E+05   0.366144175774892E+04   0.250000000000000E+03   0.349655059900000E+02    1   40   15  1  0.6457670E+00   0.1000000E+01   0.9990000E+00     2
