# Well file for MODFLOW, generated by Flopy.
         6         0
         6         0 # stress period 0
         1         9        16 -708.479980  0.000000
         1        11        13 -354.239990  0.000000
         1        20        14 -336.959991  0.000000
         1        26        10 -71.711998  0.000000
         1        29         6 -62.208000  0.000000
         1        34        12 -371.520020  0.000000
         6         0 # stress period 1
         1         9        16 -885.599976  0.000000
         1        11        13 -442.799988  0.000000
         1        20        14 -421.199982  0.000000
         1        26        10 -89.639999  0.000000
         1        29         6 -77.760002  0.000000
         1        34        12 -464.400024  0.000000
         6         0 # stress period 2
         1         9        16 -885.599976  0.000000
         1        11        13 -442.799988  0.000000
         1        20        14 -421.199982  0.000000
         1        26        10 -89.639999  0.000000
         1        29         6 -77.760002  0.000000
         1        34        12 -464.400024  0.000000
