# Well file for MODFLOW, generated by Flopy.
         6         0
         6         0 # stress period 0
         1         9        16  708.4800000  0.000000
         1        11        13  354.2400000  0.000000
         1        20        14  336.9600000  0.000000
         1        26        10  71.71200000  0.000000
         1        29         6  62.20800000  0.000000
         1        34        12  371.5200000  0.000000
         6         0 # stress period 1
         1         9        16  885.6000000  0.000000
         1        11        13  442.8000000  0.000000
         1        20        14  421.2000000  0.000000
         1        26        10  89.64000000  0.000000
         1        29         6  77.76000000  0.000000
         1        34        12  464.4000000  0.000000
         6         0 # stress period 2
         1         9        16  885.6000000  0.000000
         1        11        13  442.8000000  0.000000
         1        20        14  421.2000000  0.000000
         1        26        10  89.64000000  0.000000
         1        29         6  77.76000000  0.000000
         1        34        12  464.4000000  0.000000
