# Well file for MODFLOW, generated by Flopy.
         7         0
         7         0 # stress period 0
         1         7        14   0.0000000E+00
         1         7        16   0.0000000E+00
         1         8        15   0.0000000E+00
         1         9        14   0.0000000E+00
         1         9        16   0.0000000E+00
         1        11        17   0.0000000E+00
         1        13        16   0.0000000E+00
