pcf
* control data
             restart          estimation
         7       600         1         0         2         0
         1         1              single               point         1         0         0            noobsref
   2.000000E+01  -3.000000E+00   3.000000E-01   1.000000E-02        -7       999          lamforgive        noderforgive
   1.000000E+01   1.000000E+01   1.000000E-03         0         0
   1.000000E-01         1   1.100000E+00               noaui          nosenreuse        noboundscale
        -1   1.000000E-02         3         3   1.000000E-02         3   0.000000E+00         1  -1.000000E+00
         0         0         0         0             jcosave          verboserec          jcosaveitn          reisaveitn          parsaveitn        noparsaverun
* singular value decomposition
1
7    1.000000E-06
1 1 1
* parameter groups
                pargp              absolute   -1.000000E+04  0                switch    2.000000E+00             parabolic    1.000000E-05    5.000000E-01               smaller
* parameter data
                   q1                  none                factor    0.000000E+00    0.000000E+00    2.000000E+04                 pargp   -1.000000E+00    0.000000E+00          1
                   q2                  none                factor    0.000000E+00    0.000000E+00    2.000000E+04                 pargp   -1.000000E+00    0.000000E+00          1
                   q3                  none                factor    0.000000E+00    0.000000E+00    2.000000E+04                 pargp   -1.000000E+00    0.000000E+00          1
                   q4                  none                factor    0.000000E+00    0.000000E+00    2.000000E+04                 pargp   -1.000000E+00    0.000000E+00          1
                   q5                  none                factor    0.000000E+00    0.000000E+00    2.000000E+04                 pargp   -1.000000E+00    0.000000E+00          1
                   q6                  none                factor    0.000000E+00    0.000000E+00    2.000000E+04                 pargp   -1.000000E+00    0.000000E+00          1
                   q7                  none                factor    0.000000E+00    0.000000E+00    2.000000E+04                 pargp   -1.000000E+00    0.000000E+00          1
* observation groups
              obgnme
                   l
* observation data
               h00_00    5.000000E+01    0.000000E+00                obgnme
               h00_01    5.000000E+01    0.000000E+00                obgnme
               h00_02    5.000000E+01    0.000000E+00                obgnme
               h00_03    5.000000E+01    0.000000E+00                obgnme
               h00_04    5.000000E+01    0.000000E+00                obgnme
               h00_05    5.000000E+01    0.000000E+00                obgnme
               h00_06    5.000000E+01    0.000000E+00                obgnme
               h00_07    5.000000E+01    0.000000E+00                obgnme
               h00_08    5.000000E+01    0.000000E+00                obgnme
               h00_09    5.000000E+01    0.000000E+00                obgnme
               h00_10    5.000000E+01    0.000000E+00                obgnme
               h00_11    5.000000E+01    0.000000E+00                obgnme
               h00_12    5.000000E+01    0.000000E+00                obgnme
               h00_13    5.000000E+01    0.000000E+00                obgnme
               h00_14    5.000000E+01    0.000000E+00                obgnme
               h00_15    5.000000E+01    0.000000E+00                obgnme
               h00_16    5.000000E+01    0.000000E+00                obgnme
               h00_17    5.000000E+01    0.000000E+00                obgnme
               h00_18    5.000000E+01    0.000000E+00                obgnme
               h00_19    5.000000E+01    0.000000E+00                obgnme
               h00_20    5.000000E+01    0.000000E+00                obgnme
               h00_21    5.000000E+01    0.000000E+00                obgnme
               h00_22    5.000000E+01    0.000000E+00                obgnme
               h00_23    5.000000E+01    0.000000E+00                obgnme
               h00_24    5.000000E+01    0.000000E+00                obgnme
               h00_25    5.000000E+01    0.000000E+00                obgnme
               h00_26    5.000000E+01    0.000000E+00                obgnme
               h00_27    5.000000E+01    0.000000E+00                obgnme
               h00_28    5.000000E+01    0.000000E+00                obgnme
               h00_29    5.000000E+01    0.000000E+00                obgnme
               h01_00    5.000000E+01    0.000000E+00                obgnme
               h01_01    5.000000E+01    0.000000E+00                obgnme
               h01_02    5.000000E+01    0.000000E+00                obgnme
               h01_03    5.000000E+01    0.000000E+00                obgnme
               h01_04    5.000000E+01    0.000000E+00                obgnme
               h01_05    5.000000E+01    0.000000E+00                obgnme
               h01_06    5.000000E+01    0.000000E+00                obgnme
               h01_07    5.000000E+01    0.000000E+00                obgnme
               h01_08    5.000000E+01    0.000000E+00                obgnme
               h01_09    5.000000E+01    0.000000E+00                obgnme
               h01_10    5.000000E+01    0.000000E+00                obgnme
               h01_11    5.000000E+01    0.000000E+00                obgnme
               h01_12    5.000000E+01    0.000000E+00                obgnme
               h01_13    5.000000E+01    0.000000E+00                obgnme
               h01_14    5.000000E+01    0.000000E+00                obgnme
               h01_15    5.000000E+01    0.000000E+00                obgnme
               h01_16    5.000000E+01    0.000000E+00                obgnme
               h01_17    5.000000E+01    0.000000E+00                obgnme
               h01_18    5.000000E+01    0.000000E+00                obgnme
               h01_19    5.000000E+01    0.000000E+00                obgnme
               h01_20    5.000000E+01    0.000000E+00                obgnme
               h01_21    5.000000E+01    0.000000E+00                obgnme
               h01_22    5.000000E+01    0.000000E+00                obgnme
               h01_23    5.000000E+01    0.000000E+00                obgnme
               h01_24    5.000000E+01    0.000000E+00                obgnme
               h01_25    5.000000E+01    0.000000E+00                obgnme
               h01_26    5.000000E+01    0.000000E+00                obgnme
               h01_27    5.000000E+01    0.000000E+00                obgnme
               h01_28    5.000000E+01    0.000000E+00                obgnme
               h01_29    5.000000E+01    0.000000E+00                obgnme
               h02_00    5.000000E+01    0.000000E+00                obgnme
               h02_01    5.000000E+01    0.000000E+00                obgnme
               h02_02    5.000000E+01    0.000000E+00                obgnme
               h02_03    5.000000E+01    0.000000E+00                obgnme
               h02_04    5.000000E+01    0.000000E+00                obgnme
               h02_05    5.000000E+01    0.000000E+00                obgnme
               h02_06    5.000000E+01    0.000000E+00                obgnme
               h02_07    5.000000E+01    0.000000E+00                obgnme
               h02_08    5.000000E+01    0.000000E+00                obgnme
               h02_09    5.000000E+01    0.000000E+00                obgnme
               h02_10    5.000000E+01    0.000000E+00                obgnme
               h02_11    5.000000E+01    0.000000E+00                obgnme
               h02_12    5.000000E+01    0.000000E+00                obgnme
               h02_13    5.000000E+01    0.000000E+00                obgnme
               h02_14    5.000000E+01    0.000000E+00                obgnme
               h02_15    5.000000E+01    0.000000E+00                obgnme
               h02_16    5.000000E+01    0.000000E+00                obgnme
               h02_17    5.000000E+01    0.000000E+00                obgnme
               h02_18    5.000000E+01    0.000000E+00                obgnme
               h02_19    5.000000E+01    0.000000E+00                obgnme
               h02_20    5.000000E+01    0.000000E+00                obgnme
               h02_21    5.000000E+01    0.000000E+00                obgnme
               h02_22    5.000000E+01    0.000000E+00                obgnme
               h02_23    5.000000E+01    0.000000E+00                obgnme
               h02_24    5.000000E+01    0.000000E+00                obgnme
               h02_25    5.000000E+01    0.000000E+00                obgnme
               h02_26    5.000000E+01    0.000000E+00                obgnme
               h02_27    5.000000E+01    0.000000E+00                obgnme
               h02_28    5.000000E+01    0.000000E+00                obgnme
               h02_29    5.000000E+01    0.000000E+00                obgnme
               h03_00    5.000000E+01    0.000000E+00                obgnme
               h03_01    5.000000E+01    0.000000E+00                obgnme
               h03_02    5.000000E+01    0.000000E+00                obgnme
               h03_03    5.000000E+01    0.000000E+00                obgnme
               h03_04    5.000000E+01    0.000000E+00                obgnme
               h03_05    5.000000E+01    0.000000E+00                obgnme
               h03_06    5.000000E+01    0.000000E+00                obgnme
               h03_07    5.000000E+01    0.000000E+00                obgnme
               h03_08    5.000000E+01    0.000000E+00                obgnme
               h03_09    5.000000E+01    0.000000E+00                obgnme
               h03_10    5.000000E+01    0.000000E+00                obgnme
               h03_11    5.000000E+01    0.000000E+00                obgnme
               h03_12    5.000000E+01    0.000000E+00                obgnme
               h03_13    5.000000E+01    0.000000E+00                obgnme
               h03_14    5.000000E+01    0.000000E+00                obgnme
               h03_15    5.000000E+01    0.000000E+00                obgnme
               h03_16    5.000000E+01    0.000000E+00                obgnme
               h03_17    5.000000E+01    0.000000E+00                obgnme
               h03_18    5.000000E+01    0.000000E+00                obgnme
               h03_19    5.000000E+01    0.000000E+00                obgnme
               h03_20    5.000000E+01    0.000000E+00                obgnme
               h03_21    5.000000E+01    0.000000E+00                obgnme
               h03_22    5.000000E+01    0.000000E+00                obgnme
               h03_23    5.000000E+01    0.000000E+00                obgnme
               h03_24    5.000000E+01    0.000000E+00                obgnme
               h03_25    5.000000E+01    0.000000E+00                obgnme
               h03_26    5.000000E+01    0.000000E+00                obgnme
               h03_27    5.000000E+01    0.000000E+00                obgnme
               h03_28    5.000000E+01    0.000000E+00                obgnme
               h03_29    5.000000E+01    0.000000E+00                obgnme
               h04_00    5.000000E+01    0.000000E+00                obgnme
               h04_01    5.000000E+01    0.000000E+00                obgnme
               h04_02    5.000000E+01    0.000000E+00                obgnme
               h04_03    5.000000E+01    0.000000E+00                obgnme
               h04_04    5.000000E+01    0.000000E+00                obgnme
               h04_05    5.000000E+01    0.000000E+00                obgnme
               h04_06    5.000000E+01    0.000000E+00                obgnme
               h04_07    5.000000E+01    0.000000E+00                obgnme
               h04_08    5.000000E+01    0.000000E+00                obgnme
               h04_09    5.000000E+01    0.000000E+00                obgnme
               h04_10    5.000000E+01    0.000000E+00                obgnme
               h04_11    5.000000E+01    0.000000E+00                obgnme
               h04_12    5.000000E+01    0.000000E+00                obgnme
               h04_13    5.000000E+01    0.000000E+00                obgnme
               h04_14    5.000000E+01    0.000000E+00                obgnme
               h04_15    5.000000E+01    0.000000E+00                obgnme
               h04_16    5.000000E+01    0.000000E+00                obgnme
               h04_17    5.000000E+01    0.000000E+00                obgnme
               h04_18    5.000000E+01    0.000000E+00                obgnme
               h04_19    5.000000E+01    0.000000E+00                obgnme
               h04_20    5.000000E+01    0.000000E+00                obgnme
               h04_21    5.000000E+01    0.000000E+00                obgnme
               h04_22    5.000000E+01    0.000000E+00                obgnme
               h04_23    5.000000E+01    0.000000E+00                obgnme
               h04_24    5.000000E+01    0.000000E+00                obgnme
               h04_25    5.000000E+01    0.000000E+00                obgnme
               h04_26    5.000000E+01    0.000000E+00                obgnme
               h04_27    5.000000E+01    0.000000E+00                obgnme
               h04_28    5.000000E+01    0.000000E+00                obgnme
               h04_29    5.000000E+01    0.000000E+00                obgnme
               h05_00    5.000000E+01    0.000000E+00                obgnme
               h05_01    5.000000E+01    0.000000E+00                obgnme
               h05_02    5.000000E+01    0.000000E+00                n
               h05_03    5.000000E+01    0.000000E+00                obgnme
               h05_04    5.000000E+01    0.000000E+00                obgnme
               h05_05    5.000000E+01    0.000000E+00                obgnme
               h05_06    5.000000E+01    0.000000E+00                obgnme
               h05_07    5.000000E+01    0.000000E+00                obgnme
               h05_08    5.000000E+01    0.000000E+00                obgnme
               h05_09    5.000000E+01    0.000000E+00                obgnme
               h05_10    5.000000E+01    0.000000E+00                obgnme
               h05_11    5.000000E+01    0.000000E+00                obgnme
               h05_12    5.000000E+01    1.000000E+00                     l
               h05_13    5.000000E+01    0.000000E+00                obgnme
               h05_14    5.000000E+01    1.000000E+00                     l
               h05_15    5.000000E+01    0.000000E+00                obgnme
               h05_16    5.000000E+01    1.000000E+00                     l
               h05_17    5.000000E+01    0.000000E+00                obgnme
               h05_18    5.000000E+01    0.000000E+00                obgnme
               h05_19    5.000000E+01    0.000000E+00                obgnme
               h05_20    5.000000E+01    0.000000E+00                obgnme
               h05_21    5.000000E+01    0.000000E+00                obgnme
               h05_22    5.000000E+01    0.000000E+00                obgnme
               h05_23    5.000000E+01    0.000000E+00                obgnme
               h05_24    5.000000E+01    0.000000E+00                obgnme
               h05_25    5.000000E+01    0.000000E+00                obgnme
               h05_26    5.000000E+01    0.000000E+00                obgnme
               h05_27    5.000000E+01    0.000000E+00                obgnme
               h05_28    5.000000E+01    0.000000E+00                obgnme
               h05_29    5.000000E+01    0.000000E+00                obgnme
               h06_00    5.000000E+01    0.000000E+00                obgnme
               h06_01    5.000000E+01    0.000000E+00                obgnme
               h06_02    5.000000E+01    0.000000E+00                obgnme
               h06_03    5.000000E+01    0.000000E+00                obgnme
               h06_04    5.000000E+01    0.000000E+00                obgnme
               h06_05    5.000000E+01    0.000000E+00                obgnme
               h06_06    5.000000E+01    0.000000E+00                obgnme
               h06_07    5.000000E+01    0.000000E+00                obgnme
               h06_08    5.000000E+01    0.000000E+00                obgnme
               h06_09    5.000000E+01    0.000000E+00                obgnme
               h06_10    5.000000E+01    0.000000E+00                obgnme
               h06_11    5.000000E+01    0.000000E+00                obgnme
               h06_12    5.000000E+01    0.000000E+00                obgnme
               h06_13    5.000000E+01    0.000000E+00                obgnme
               h06_14    5.000000E+01    0.000000E+00                obgnme
               h06_15    5.000000E+01    0.000000E+00                obgnme
               h06_16    5.000000E+01    0.000000E+00                obgnme
               h06_17    5.000000E+01    0.000000E+00                obgnme
               h06_18    5.000000E+01    0.000000E+00                obgnme
               h06_19    5.000000E+01    0.000000E+00                obgnme
               h06_20    5.000000E+01    0.000000E+00                obgnme
               h06_21    5.000000E+01    0.000000E+00                obgnme
               h06_22    5.000000E+01    0.000000E+00                obgnme
               h06_23    5.000000E+01    0.000000E+00                obgnme
               h06_24    5.000000E+01    0.000000E+00                obgnme
               h06_25    5.000000E+01    0.000000E+00                obgnme
               h06_26    5.000000E+01    0.000000E+00                obgnme
               h06_27    5.000000E+01    0.000000E+00                obgnme
               h06_28    5.000000E+01    0.000000E+00                obgnme
               h06_29    5.000000E+01    0.000000E+00                obgnme
               h07_00    5.000000E+01    0.000000E+00                obgnme
               h07_01    5.000000E+01    0.000000E+00                obgnme
               h07_02    5.000000E+01    0.000000E+00                obgnme
               h07_03    5.000000E+01    0.000000E+00                obgnme
               h07_04    5.000000E+01    0.000000E+00                obgnme
               h07_05    5.000000E+01    0.000000E+00                obgnme
               h07_06    5.000000E+01    0.000000E+00                obgnme
               h07_07    5.000000E+01    0.000000E+00                obgnme
               h07_08    5.000000E+01    0.000000E+00                obgnme
               h07_09    5.000000E+01    0.000000E+00                obgnme
               h07_10    5.000000E+01    0.000000E+00                obgnme
               h07_11    5.000000E+01    0.000000E+00                obgnme
               h07_12    5.000000E+01    1.000000E+00                     l
               h07_13    5.000000E+01    0.000000E+00                obgnme
               h07_14    5.000000E+01    0.000000E+00                obgnme
               h07_15    5.000000E+01    0.000000E+00                obgnme
               h07_16    5.000000E+01    1.000000E+00                     l
               h07_17    5.000000E+01    0.000000E+00                obgnme
               h07_18    5.000000E+01    0.000000E+00                obgnme
               h07_19    5.000000E+01    0.000000E+00                obgnme
               h07_20    5.000000E+01    0.000000E+00                obgnme
               h07_21    5.000000E+01    0.000000E+00                obgnme
               h07_22    5.000000E+01    0.000000E+00                obgnme
               h07_23    5.000000E+01    0.000000E+00                obgnme
               h07_24    5.000000E+01    0.000000E+00                obgnme
               h07_25    5.000000E+01    0.000000E+00                obgnme
               h07_26    5.000000E+01    0.000000E+00                obgnme
               h07_27    5.000000E+01    0.000000E+00                obgnme
               h07_28    5.000000E+01    0.000000E+00                obgnme
               h07_29    5.000000E+01    0.000000E+00                obgnme
               h08_00    5.000000E+01    0.000000E+00                obgnme
               h08_01    5.000000E+01    0.000000E+00                obgnme
               h08_02    5.000000E+01    0.000000E+00                obgnme
               h08_03    5.000000E+01    0.000000E+00                obgnme
               h08_04    5.000000E+01    0.000000E+00                obgnme
               h08_05    5.000000E+01    0.000000E+00                obgnme
               h08_06    5.000000E+01    0.000000E+00                obgnme
               h08_07    5.000000E+01    0.000000E+00                obgnme
               h08_08    5.000000E+01    0.000000E+00                obgnme
               h08_09    5.000000E+01    0.000000E+00                obgnme
               h08_10    5.000000E+01    0.000000E+00                obgnme
               h08_11    5.000000E+01    0.000000E+00                obgnme
               h08_12    5.000000E+01    0.000000E+00                obgnme
               h08_13    5.000000E+01    0.000000E+00                obgnme
               h08_14    5.000000E+01    0.000000E+00                obgnme
               h08_15    5.000000E+01    0.000000E+00                obgnme
               h08_16    5.000000E+01    0.000000E+00                obgnme
               h08_17    5.000000E+01    0.000000E+00                obgnme
               h08_18    5.000000E+01    0.000000E+00                obgnme
               h08_19    5.000000E+01    0.000000E+00                obgnme
               h08_20    5.000000E+01    0.000000E+00                obgnme
               h08_21    5.000000E+01    0.000000E+00                obgnme
               h08_22    5.000000E+01    0.000000E+00                obgnme
               h08_23    5.000000E+01    0.000000E+00                obgnme
               h08_24    5.000000E+01    0.000000E+00                obgnme
               h08_25    5.000000E+01    0.000000E+00                obgnme
               h08_26    5.000000E+01    0.000000E+00                obgnme
               h08_27    5.000000E+01    0.000000E+00                obgnme
               h08_28    5.000000E+01    0.000000E+00                obgnme
               h08_29    5.000000E+01    0.000000E+00                obgnme
               h09_00    5.000000E+01    0.000000E+00                obgnme
               h09_01    5.000000E+01    0.000000E+00                obgnme
               h09_02    5.000000E+01    0.000000E+00                obgnme
               h09_03    5.000000E+01    0.000000E+00                obgnme
               h09_04    5.000000E+01    0.000000E+00                obgnme
               h09_05    5.000000E+01    0.000000E+00                obgnme
               h09_06    5.000000E+01    0.000000E+00                obgnme
               h09_07    5.000000E+01    0.000000E+00                obgnme
               h09_08    5.000000E+01    0.000000E+00                obgnme
               h09_09    5.000000E+01    0.000000E+00                obgnme
               h09_10    5.000000E+01    0.000000E+00                obgnme
               h09_11    5.000000E+01    0.000000E+00                obgnme
               h09_12    5.000000E+01    1.000000E+00                     l
               h09_13    5.000000E+01    0.000000E+00                obgnme
               h09_14    5.000000E+01    1.000000E+00                     l
               h09_15    5.000000E+01    0.000000E+00                obgnme
               h09_16    5.000000E+01    0.000000E+00                obgnme
               h09_17    5.000000E+01    0.000000E+00                obgnme
               h09_18    5.000000E+01    0.000000E+00                obgnme
               h09_19    5.000000E+01    0.000000E+00                obgnme
               h09_20    5.000000E+01    0.000000E+00                obgnme
               h09_21    5.000000E+01    0.000000E+00                obgnme
               h09_22    5.000000E+01    0.000000E+00                obgnme
               h09_23    5.000000E+01    0.000000E+00                obgnme
               h09_24    5.000000E+01    0.000000E+00                obgnme
               h09_25    5.000000E+01    0.000000E+00                obgnme
               h09_26    5.000000E+01    0.000000E+00                obgnme
               h09_27    5.000000E+01    0.000000E+00                obgnme
               h09_28    5.000000E+01    0.000000E+00                obgnme
               h09_29    5.000000E+01    0.000000E+00                obgnme
               h10_00    5.000000E+01    0.000000E+00                obgnme
               h10_01    5.000000E+01    0.000000E+00                obgnme
               h10_02    5.000000E+01    0.000000E+00                obgnme
               h10_03    5.000000E+01    0.000000E+00                obgnme
               h10_04    5.000000E+01    0.000000E+00                obgnme
               h10_05    5.000000E+01    0.000000E+00                obgnme
               h10_06    5.000000E+01    0.000000E+00                obgnme
               h10_07    5.000000E+01    0.000000E+00                obgnme
               h10_08    5.000000E+01    0.000000E+00                obgnme
               h10_09    5.000000E+01    0.000000E+00                obgnme
               h10_10    5.000000E+01    0.000000E+00                obgnme
               h10_11    5.000000E+01    0.000000E+00                obgnme
               h10_12    5.000000E+01    0.000000E+00                obgnme
               h10_13    5.000000E+01    0.000000E+00                obgnme
               h10_14    5.000000E+01    0.000000E+00                obgnme
               h10_15    5.000000E+01    1.000000E+00                     l
               h10_16    5.000000E+01    0.000000E+00                obgnme
               h10_17    5.000000E+01    0.000000E+00                obgnme
               h10_18    5.000000E+01    0.000000E+00                obgnme
               h10_19    5.000000E+01    0.000000E+00                obgnme
               h10_20    5.000000E+01    0.000000E+00                obgnme
               h10_21    5.000000E+01    0.000000E+00                obgnme
               h10_22    5.000000E+01    0.000000E+00                obgnme
               h10_23    5.000000E+01    0.000000E+00                obgnme
               h10_24    5.000000E+01    0.000000E+00                obgnme
               h10_25    5.000000E+01    0.000000E+00                obgnme
               h10_26    5.000000E+01    0.000000E+00                obgnme
               h10_27    5.000000E+01    0.000000E+00                obgnme
               h10_28    5.000000E+01    0.000000E+00                obgnme
               h10_29    5.000000E+01    0.000000E+00                obgnme
               h11_00    5.000000E+01    0.000000E+00                obgnme
               h11_01    5.000000E+01    0.000000E+00                obgnme
               h11_02    5.000000E+01    0.000000E+00                obgnme
               h11_03    5.000000E+01    0.000000E+00                obgnme
               h11_04    5.000000E+01    0.000000E+00                obgnme
               h11_05    5.000000E+01    0.000000E+00                obgnme
               h11_06    5.000000E+01    0.000000E+00                obgnme
               h11_07    5.000000E+01    0.000000E+00                obgnme
               h11_08    5.000000E+01    0.000000E+00                obgnme
               h11_09    5.000000E+01    0.000000E+00                obgnme
               h11_10    5.000000E+01    0.000000E+00                obgnme
               h11_11    5.000000E+01    0.000000E+00                obgnme
               h11_12    5.000000E+01    0.000000E+00                obgnme
               h11_13    5.000000E+01    0.000000E+00                obgnme
               h11_14    5.000000E+01    0.000000E+00                obgnme
               h11_15    5.000000E+01    0.000000E+00                obgnme
               h11_16    5.000000E+01    0.000000E+00                obgnme
               h11_17    5.000000E+01    0.000000E+00                obgnme
               h11_18    5.000000E+01    0.000000E+00                obgnme
               h11_19    5.000000E+01    0.000000E+00                obgnme
               h11_20    5.000000E+01    0.000000E+00                obgnme
               h11_21    5.000000E+01    0.000000E+00                obgnme
               h11_22    5.000000E+01    0.000000E+00                obgnme
               h11_23    5.000000E+01    0.000000E+00                obgnme
               h11_24    5.000000E+01    0.000000E+00                obgnme
               h11_25    5.000000E+01    0.000000E+00                obgnme
               h11_26    5.000000E+01    0.000000E+00                obgnme
               h11_27    5.000000E+01    0.000000E+00                obgnme
               h11_28    5.000000E+01    0.000000E+00                obgnme
               h11_29    5.000000E+01    0.000000E+00                obgnme
               h12_00    5.000000E+01    0.000000E+00                obgnme
               h12_01    5.000000E+01    0.000000E+00                obgnme
               h12_02    5.000000E+01    0.000000E+00                obgnme