# Basic package file for MODFLOW, generated by Flopy.
 FREE
INTERNAL               1    (30I10) -1 #ibound                        
        -1         1         1         1         1         1         1         1         1         1         1         1         1         1         1         1         1         1         1         1         1         1         1         1         1         1         1         1         1        -1
        -1         1         1         1         1         1         1         1         1         1         1         1         1         1         1         1         1         1         1         1         1         1         1         1         1         1         1         1         1        -1
        -1         1         1         1         1         1         1         1         1         1         1         1         1         1         1         1         1         1         1         1         1         1         1         1         1         1         1         1         1        -1
        -1         1         1         1         1         1         1         1         1         1         1         1         1         1         1         1         1         1         1         1         1         1         1         1         1         1         1         1         1        -1
        -1         1         1         1         1         1         1         1         1         1         1         1         1         1         1         1         1         1         1         1         1         1         1         1         1         1         1         1         1        -1
        -1         1         1         1         1         1         1         1         1         1         1         1         1         1         1         1         1         1         1         1         1         1         1         1         1         1         1         1         1        -1
        -1         1         1         1         1         1         1         1         1         1         1         1         1         1         1         1         1         1         1         1         1         1         1         1         1         1         1         1         1        -1
        -1         1         1         1         1         1         1         1         1         1         1         1         1         1         1         1         1         1         1         1         1         1         1         1         1         1         1         1         1        -1
        -1         1         1         1         1         1         1         1         1         1         1         1         1         1         1         1         1         1         1         1         1         1         1         1         1         1         1         1         1        -1
        -1         1         1         1         1         1         1         1         1         1         1         1         1         1         1         1         1         1         1         1         1         1         1         1         1         1         1         1         1        -1
        -1         1         1         1         1         1         1         1         1         1         1         1         1         1         1         1         1         1         1         1         1         1         1         1         1         1         1         1         1        -1
        -1         1         1         1         1         1         1         1         1         1         1         1         1         1         1         1         1         1         1         1         1         1         1         1         1         1         1         1         1        -1
        -1         1         1         1         1         1         1         1         1         1         1         1         1         1         1         1         1         1         1         1         1         1         1         1         1         1         1         1         1        -1
        -1         1         1         1         1         1         1         1         1         1         1         1         1         1         1         1         1         1         1         1         1         1         1         1         1         1         1         1         1        -1
        -1         1         1         1         1         1         1         1         1         1         1         1         1         1         1         1         1         1         1         1         1         1         1         1         1         1         1         1         1        -1
        -1         1         1         1         1         1         1         1         1         1         1         1         1         1         1         1         1         1         1         1         1         1         1         1         1         1         1         1         1        -1
        -1         1         1         1         1         1         1         1         1         1         1         1         1         1         1         1         1         1         1         1         1         1         1         1         1         1         1         1         1        -1
        -1         1         1         1         1         1         1         1         1         1         1         1         1         1         1         1         1         1         1         1         1         1         1         1         1         1         1         1         1        -1
        -1         1         1         1         1         1         1         1         1         1         1         1         1         1         1         1         1         1         1         1         1         1         1         1         1         1         1         1         1        -1
        -1         1         1         1         1         1         1         1         1         1         1         1         1         1         1         1         1         1         1         1         1         1         1         1         1         1         1         1         1        -1
              0
INTERNAL               1  (30E15.6) -1 #strt                          
   8.000000E+01   7.000000E+01   7.000000E+01   7.000000E+01   7.000000E+01   7.000000E+01   7.000000E+01   7.000000E+01   7.000000E+01   7.000000E+01   7.000000E+01   7.000000E+01   7.000000E+01   7.000000E+01   7.000000E+01   7.000000E+01   7.000000E+01   7.000000E+01   7.000000E+01   7.000000E+01   7.000000E+01   7.000000E+01   7.000000E+01   7.000000E+01   7.000000E+01   7.000000E+01   7.000000E+01   7.000000E+01   7.000000E+01   6.000000E+01
   8.000000E+01   7.000000E+01   7.000000E+01   7.000000E+01   7.000000E+01   7.000000E+01   7.000000E+01   7.000000E+01   7.000000E+01   7.000000E+01   7.000000E+01   7.000000E+01   7.000000E+01   7.000000E+01   7.000000E+01   7.000000E+01   7.000000E+01   7.000000E+01   7.000000E+01   7.000000E+01   7.000000E+01   7.000000E+01   7.000000E+01   7.000000E+01   7.000000E+01   7.000000E+01   7.000000E+01   7.000000E+01   7.000000E+01   6.000000E+01
   8.000000E+01   7.000000E+01   7.000000E+01   7.000000E+01   7.000000E+01   7.000000E+01   7.000000E+01   7.000000E+01   7.000000E+01   7.000000E+01   7.000000E+01   7.000000E+01   7.000000E+01   7.000000E+01   7.000000E+01   7.000000E+01   7.000000E+01   7.000000E+01   7.000000E+01   7.000000E+01   7.000000E+01   7.000000E+01   7.000000E+01   7.000000E+01   7.000000E+01   7.000000E+01   7.000000E+01   7.000000E+01   7.000000E+01   6.000000E+01
   8.000000E+01   7.000000E+01   7.000000E+01   7.000000E+01   7.000000E+01   7.000000E+01   7.000000E+01   7.000000E+01   7.000000E+01   7.000000E+01   7.000000E+01   7.000000E+01   7.000000E+01   7.000000E+01   7.000000E+01   7.000000E+01   7.000000E+01   7.000000E+01   7.000000E+01   7.000000E+01   7.000000E+01   7.000000E+01   7.000000E+01   7.000000E+01   7.000000E+01   7.000000E+01   7.000000E+01   7.000000E+01   7.000000E+01   6.000000E+01
   8.000000E+01   7.000000E+01   7.000000E+01   7.000000E+01   7.000000E+01   7.000000E+01   7.000000E+01   7.000000E+01   7.000000E+01   7.000000E+01   7.000000E+01   7.000000E+01   7.000000E+01   7.000000E+01   7.000000E+01   7.000000E+01   7.000000E+01   7.000000E+01   7.000000E+01   7.000000E+01   7.000000E+01   7.000000E+01   7.000000E+01   7.000000E+01   7.000000E+01   7.000000E+01   7.000000E+01   7.000000E+01   7.000000E+01   6.000000E+01
   8.000000E+01   7.000000E+01   7.000000E+01   7.000000E+01   7.000000E+01   7.000000E+01   7.000000E+01   7.000000E+01   7.000000E+01   7.000000E+01   7.000000E+01   7.000000E+01   7.000000E+01   7.000000E+01   7.000000E+01   7.000000E+01   7.000000E+01   7.000000E+01   7.000000E+01   7.000000E+01   7.000000E+01   7.000000E+01   7.000000E+01   7.000000E+01   7.000000E+01   7.000000E+01   7.000000E+01   7.000000E+01   7.000000E+01   6.000000E+01
   8.000000E+01   7.000000E+01   7.000000E+01   7.000000E+01   7.000000E+01   7.000000E+01   7.000000E+01   7.000000E+01   7.000000E+01   7.000000E+01   7.000000E+01   7.000000E+01   7.000000E+01   7.000000E+01   7.000000E+01   7.000000E+01   7.000000E+01   7.000000E+01   7.000000E+01   7.000000E+01   7.000000E+01   7.000000E+01   7.000000E+01   7.000000E+01   7.000000E+01   7.000000E+01   7.000000E+01   7.000000E+01   7.000000E+01   6.000000E+01
   8.000000E+01   7.000000E+01   7.000000E+01   7.000000E+01   7.000000E+01   7.000000E+01   7.000000E+01   7.000000E+01   7.000000E+01   7.000000E+01   7.000000E+01   7.000000E+01   7.000000E+01   7.000000E+01   7.000000E+01   7.000000E+01   7.000000E+01   7.000000E+01   7.000000E+01   7.000000E+01   7.000000E+01   7.000000E+01   7.000000E+01   7.000000E+01   7.000000E+01   7.000000E+01   7.000000E+01   7.000000E+01   7.000000E+01   6.000000E+01
   8.000000E+01   7.000000E+01   7.000000E+01   7.000000E+01   7.000000E+01   7.000000E+01   7.000000E+01   7.000000E+01   7.000000E+01   7.000000E+01   7.000000E+01   7.000000E+01   7.000000E+01   7.000000E+01   7.000000E+01   7.000000E+01   7.000000E+01   7.000000E+01   7.000000E+01   7.000000E+01   7.000000E+01   7.000000E+01   7.000000E+01   7.000000E+01   7.000000E+01   7.000000E+01   7.000000E+01   7.000000E+01   7.000000E+01   6.000000E+01
   8.000000E+01   7.000000E+01   7.000000E+01   7.000000E+01   7.000000E+01   7.000000E+01   7.000000E+01   7.000000E+01   7.000000E+01   7.000000E+01   7.000000E+01   7.000000E+01   7.000000E+01   7.000000E+01   7.000000E+01   7.000000E+01   7.000000E+01   7.000000E+01   7.000000E+01   7.000000E+01   7.000000E+01   7.000000E+01   7.000000E+01   7.000000E+01   7.000000E+01   7.000000E+01   7.000000E+01   7.000000E+01   7.000000E+01   6.000000E+01
   8.000000E+01   7.000000E+01   7.000000E+01   7.000000E+01   7.000000E+01   7.000000E+01   7.000000E+01   7.000000E+01   7.000000E+01   7.000000E+01   7.000000E+01   7.000000E+01   7.000000E+01   7.000000E+01   7.000000E+01   7.000000E+01   7.000000E+01   7.000000E+01   7.000000E+01   7.000000E+01   7.000000E+01   7.000000E+01   7.000000E+01   7.000000E+01   7.000000E+01   7.000000E+01   7.000000E+01   7.000000E+01   7.000000E+01   6.000000E+01
   8.000000E+01   7.000000E+01   7.000000E+01   7.000000E+01   7.000000E+01   7.000000E+01   7.000000E+01   7.000000E+01   7.000000E+01   7.000000E+01   7.000000E+01   7.000000E+01   7.000000E+01   7.000000E+01   7.000000E+01   7.000000E+01   7.000000E+01   7.000000E+01   7.000000E+01   7.000000E+01   7.000000E+01   7.000000E+01   7.000000E+01   7.000000E+01   7.000000E+01   7.000000E+01   7.000000E+01   7.000000E+01   7.000000E+01   6.000000E+01
   8.000000E+01   7.000000E+01   7.000000E+01   7.000000E+01   7.000000E+01   7.000000E+01   7.000000E+01   7.000000E+01   7.000000E+01   7.000000E+01   7.000000E+01   7.000000E+01   7.000000E+01   7.000000E+01   7.000000E+01   7.000000E+01   7.000000E+01   7.000000E+01   7.000000E+01   7.000000E+01   7.000000E+01   7.000000E+01   7.000000E+01   7.000000E+01   7.000000E+01   7.000000E+01   7.000000E+01   7.000000E+01   7.000000E+01   6.000000E+01
   8.000000E+01   7.000000E+01   7.000000E+01   7.000000E+01   7.000000E+01   7.000000E+01   7.000000E+01   7.000000E+01   7.000000E+01   7.000000E+01   7.000000E+01   7.000000E+01   7.000000E+01   7.000000E+01   7.000000E+01   7.000000E+01   7.000000E+01   7.000000E+01   7.000000E+01   7.000000E+01   7.000000E+01   7.000000E+01   7.000000E+01   7.000000E+01   7.000000E+01   7.000000E+01   7.000000E+01   7.000000E+01   7.000000E+01   6.000000E+01
   8.000000E+01   7.000000E+01   7.000000E+01   7.000000E+01   7.000000E+01   7.000000E+01   7.000000E+01   7.000000E+01   7.000000E+01   7.000000E+01   7.000000E+01   7.000000E+01   7.000000E+01   7.000000E+01   7.000000E+01   7.000000E+01   7.000000E+01   7.000000E+01   7.000000E+01   7.000000E+01   7.000000E+01   7.000000E+01   7.000000E+01   7.000000E+01   7.000000E+01   7.000000E+01   7.000000E+01   7.000000E+01   7.000000E+01   6.000000E+01
   8.000000E+01   7.000000E+01   7.000000E+01   7.000000E+01   7.000000E+01   7.000000E+01   7.000000E+01   7.000000E+01   7.000000E+01   7.000000E+01   7.000000E+01   7.000000E+01   7.000000E+01   7.000000E+01   7.000000E+01   7.000000E+01   7.000000E+01   7.000000E+01   7.000000E+01   7.000000E+01   7.000000E+01   7.000000E+01   7.000000E+01   7.000000E+01   7.000000E+01   7.000000E+01   7.000000E+01   7.000000E+01   7.000000E+01   6.000000E+01
   8.000000E+01   7.000000E+01   7.000000E+01   7.000000E+01   7.000000E+01   7.000000E+01   7.000000E+01   7.000000E+01   7.000000E+01   7.000000E+01   7.000000E+01   7.000000E+01   7.000000E+01   7.000000E+01   7.000000E+01   7.000000E+01   7.000000E+01   7.000000E+01   7.000000E+01   7.000000E+01   7.000000E+01   7.000000E+01   7.000000E+01   7.000000E+01   7.000000E+01   7.000000E+01   7.000000E+01   7.000000E+01   7.000000E+01   6.000000E+01
   8.000000E+01   7.000000E+01   7.000000E+01   7.000000E+01   7.000000E+01   7.000000E+01   7.000000E+01   7.000000E+01   7.000000E+01   7.000000E+01   7.000000E+01   7.000000E+01   7.000000E+01   7.000000E+01   7.000000E+01   7.000000E+01   7.000000E+01   7.000000E+01   7.000000E+01   7.000000E+01   7.000000E+01   7.000000E+01   7.000000E+01   7.000000E+01   7.000000E+01   7.000000E+01   7.000000E+01   7.000000E+01   7.000000E+01   6.000000E+01
   8.000000E+01   7.000000E+01   7.000000E+01   7.000000E+01   7.000000E+01   7.000000E+01   7.000000E+01   7.000000E+01   7.000000E+01   7.000000E+01   7.000000E+01   7.000000E+01   7.000000E+01   7.000000E+01   7.000000E+01   7.000000E+01   7.000000E+01   7.000000E+01   7.000000E+01   7.000000E+01   7.000000E+01   7.000000E+01   7.000000E+01   7.000000E+01   7.000000E+01   7.000000E+01   7.000000E+01   7.000000E+01   7.000000E+01   6.000000E+01
   8.000000E+01   7.000000E+01   7.000000E+01   7.000000E+01   7.000000E+01   7.000000E+01   7.000000E+01   7.000000E+01   7.000000E+01   7.000000E+01   7.000000E+01   7.000000E+01   7.000000E+01   7.000000E+01   7.000000E+01   7.000000E+01   7.000000E+01   7.000000E+01   7.000000E+01   7.000000E+01   7.000000E+01   7.000000E+01   7.000000E+01   7.000000E+01   7.000000E+01   7.000000E+01   7.000000E+01   7.000000E+01   7.000000E+01   6.000000E+01
