# Basic package file for MODFLOW, generated by Flopy.
 FREE
OPEN/CLOSE          ref/ibound_layer_1.ref               1    (30I10) -1 ibound_layer_0                
              0
OPEN/CLOSE            ref/strt_layer_1.ref               1     (FREE) -1 strt_layer_0                  
