ptf ~
# Well file for MODFLOW, generated by Flopy.
         7         0
         7         0 # stress period 0
         1         7        14   ~  Q1   ~
         1         7        16   ~  Q2   ~
         1         8        15   ~  Q3   ~
         1         9        14   ~  Q4   ~
         1         9        16   ~  Q5   ~
         1        11        17   ~  Q6   ~
         1        13        16   ~  Q7   ~
 