# WEL package for  MODFLOW-NWT, generated by Flopy.
         6        50
         6         0 # stress period 1
         3        10        17  -7.0800000E+02
         3        12        14  -3.5400000E+02
         3        21        15  -3.3600000E+02
         3        27        11  -7.1000000E+01
         3        30         7  -6.2000000E+01
         3        35        13  -3.7100000E+02
         6         0 # stress period 2
         3        10        17  -8.8500000E+02
         3        12        14  -4.4250000E+02
         3        21        15  -4.2000000E+02
         3        27        11  -8.8750000E+01
         3        30         7  -7.7500000E+01
         3        35        13  -4.6375000E+02
        -1         0 # stress period 3
