## BTN for MT3DMS, generated by Flopy.
##
         3        40        20         3         1         1
D   M   KG  
T F T F T 
 0 0 0
         0       250                           -1 #delr
         0       250                           -1 #delc
         0        35                           -1 #htop
         0       2.5                           -1 #dz layer 1
         0       2.5                           -1 #dz layer 2
        31         1          (20E15.6)        -1 #dz layer 3
   1.299200E+01   1.149300E+01   1.132800E+01   1.407000E+01   1.603900E+01   1.553800E+01   2.198100E+01   1.940000E+01   2.111530E+01   2.277260E+01   2.374890E+01   2.399390E+01   2.288570E+01   2.309610E+01   2.375570E+01   2.305500E+01   2.301450E+01   2.496900E+01   2.599390E+01   2.334160E+01
   1.087400E+01   1.265500E+01   1.176600E+01   1.634000E+01   1.673800E+01   1.607800E+01   1.932400E+01   2.008330E+01   1.897500E+01   2.359060E+01   2.512180E+01   2.491570E+01   2.346790E+01   2.482270E+01   2.428190E+01   2.566710E+01   2.411330E+01   2.356440E+01   2.470590E+01   2.394970E+01
   1.252000E+01   1.114000E+01   1.170400E+01   1.701400E+01   1.626200E+01   1.559900E+01   2.079800E+01   1.879200E+01   2.165010E+01   2.142580E+01   2.401900E+01   2.348010E+01   2.375470E+01   2.499340E+01   2.282800E+01   2.283650E+01   2.540920E+01   2.486750E+01   2.494760E+01   2.319890E+01
   1.203000E+01   1.110300E+01   1.068700E+01   1.513800E+01   1.667900E+01   1.423200E+01   1.853400E+01   2.124320E+01   1.767200E+01   2.294500E+01   2.694100E+01   2.717570E+01   2.775490E+01   2.701420E+01   2.680910E+01   2.776810E+01   2.221500E+01   2.504450E+01   2.366110E+01   2.352450E+01
   1.108900E+01   1.195500E+01   1.300500E+01   1.511900E+01   1.478800E+01   1.624600E+01   2.130890E+01   1.536500E+01   1.995500E+01   2.521070E+01   2.683120E+01   2.702380E+01   2.741870E+01   2.703170E+01   2.764930E+01   2.729720E+01   2.649440E+01   2.366650E+01   2.522230E+01   2.459340E+01
   1.400100E+01   1.182200E+01   1.336500E+01   1.626100E+01   1.639800E+01   1.519500E+01   1.481600E+01   1.718500E+01   1.573700E+01   1.932700E+01   2.659860E+01   2.665720E+01   2.707430E+01   2.697620E+01   2.676390E+01   2.730510E+01   2.737680E+01   2.699150E+01   2.394390E+01   2.348160E+01
   1.407300E+01   1.675800E+01   1.479400E+01   1.878700E+01   1.554400E+01   1.836900E+01   1.486600E+01   1.716500E+01   1.599600E+01   2.106360E+01   2.653210E+01   2.661860E+01   2.707640E+01   2.650530E+01   2.642850E+01   2.668690E+01   2.606310E+01   2.728500E+01   2.548520E+01   2.412260E+01
   1.040000E+01   1.545700E+01   1.596700E+01   1.681400E+01   1.465600E+01   1.517000E+01   1.540600E+01   1.449300E+01   1.511200E+01   2.118050E+01   2.653670E+01   2.668950E+01   2.595440E+01   2.718470E+01   2.714710E+01   2.680490E+01   2.738500E+01   2.573110E+01   2.657750E+01   2.325490E+01
   1.152400E+01   1.656700E+01   1.765300E+01   1.425900E+01   3.000000E+01   3.000000E+01   3.000000E+01   1.712500E+01   2.117270E+01   2.489130E+01   2.586320E+01   2.673230E+01   2.711610E+01   2.667420E+01   2.651430E+01   2.678880E+01   2.691940E+01   2.749550E+01   2.648320E+01   2.465110E+01
   1.033500E+01   1.688300E+01   1.447200E+01   1.586900E+01   3.000000E+01   3.000000E+01   3.000000E+01   3.000000E+01   1.960800E+01   2.363480E+01   2.693300E+01   2.733900E+01   2.690580E+01   2.757490E+01   2.649810E+01   2.756320E+01   2.665440E+01   2.745730E+01   2.614850E+01   2.717270E+01
   1.248700E+01   1.524100E+01   1.691700E+01   1.448300E+01   3.000000E+01   3.000000E+01   3.000000E+01   3.000000E+01   1.944900E+01   2.455140E+01   2.686530E+01   2.663020E+01   2.693870E+01   2.694430E+01   2.693870E+01   2.726490E+01   2.697740E+01   2.713440E+01   2.710370E+01   2.638660E+01
   1.771900E+01   1.652400E+01   1.539600E+01   1.550400E+01   3.000000E+01   3.000000E+01   3.000000E+01   3.000000E+01   2.028740E+01   2.473900E+01   2.745940E+01   2.580730E+01   2.692780E+01   2.685930E+01   2.737420E+01   2.675740E+01   2.646660E+01   2.714510E+01   2.741740E+01   2.670750E+01
   1.585800E+01   1.803800E+01   1.610400E+01   1.708700E+01   3.000000E+01   3.000000E+01   3.000000E+01   3.000000E+01   2.139690E+01   2.434780E+01   2.824680E+01   2.834790E+01   2.850680E+01   2.826620E+01   2.835380E+01   2.814870E+01   2.671040E+01   2.733830E+01   2.621620E+01   2.656230E+01
   1.504000E+01   1.633100E+01   1.830100E+01   1.957700E+01   3.000000E+01   3.000000E+01   3.000000E+01   3.000000E+01   2.059440E+01   2.436640E+01   2.837380E+01   2.831040E+01   2.871540E+01   2.845620E+01   2.815980E+01   2.840440E+01   2.628960E+01   2.680070E+01   2.675520E+01   2.725380E+01
   1.714800E+01   1.633900E+01   1.942700E+01   2.096610E+01   3.000000E+01   3.000000E+01   3.000000E+01   3.000000E+01   2.073440E+01   2.339970E+01   2.892520E+01   2.827050E+01   2.854560E+01   2.848020E+01   2.887860E+01   2.832440E+01   2.560910E+01   2.754100E+01   2.799170E+01   2.657940E+01
   1.559700E+01   1.478700E+01   1.959100E+01   2.096450E+01   3.000000E+01   3.000000E+01   3.000000E+01   3.000000E+01   1.988900E+01   2.630080E+01   2.857680E+01   2.825010E+01   2.834190E+01   2.840800E+01   2.838960E+01   2.872750E+01   2.580970E+01   2.708780E+01   2.681090E+01   2.630020E+01
   1.680900E+01   2.069540E+01   2.077590E+01   1.982300E+01   3.000000E+01   3.000000E+01   3.000000E+01   3.000000E+01   2.197380E+01   2.378730E+01   2.862370E+01   2.870570E+01   2.854840E+01   2.869210E+01   2.889080E+01   2.868510E+01   2.705630E+01   2.634840E+01   2.678310E+01   2.675890E+01
   1.624300E+01   2.033030E+01   2.308440E+01   1.990800E+01   3.000000E+01   3.000000E+01   3.000000E+01   3.000000E+01   1.919700E+01   2.355360E+01   2.867270E+01   2.842040E+01   2.887810E+01   2.872310E+01   2.841860E+01   2.853480E+01   2.836300E+01   2.711710E+01   2.759700E+01   2.769750E+01
   1.636900E+01   1.894900E+01   2.393680E+01   1.891100E+01   3.000000E+01   3.000000E+01   3.000000E+01   3.000000E+01   2.032230E+01   2.378120E+01   2.829240E+01   2.887560E+01   2.872500E+01   2.844550E+01   2.855350E+01   2.837160E+01   2.849840E+01   2.746010E+01   2.822880E+01   2.598850E+01
   1.573100E+01   1.985700E+01   2.600570E+01   1.935500E+01   3.000000E+01   3.000000E+01   3.000000E+01   3.000000E+01   1.964000E+01   2.465870E+01   2.888630E+01   2.865950E+01   2.857910E+01   2.843510E+01   2.780000E+01   2.855020E+01   2.847590E+01   2.705640E+01   2.689970E+01   2.712100E+01
   1.775600E+01   2.023930E+01   2.212160E+01   2.049720E+01   3.000000E+01   3.000000E+01   3.000000E+01   3.000000E+01   2.128270E+01   2.604610E+01   2.816330E+01   2.866150E+01   2.906335E+01   2.860400E+01   2.826100E+01   2.840930E+01   2.847490E+01   2.708410E+01   2.617770E+01   2.737330E+01
   1.528200E+01   1.930500E+01   2.526970E+01   2.171930E+01   3.000000E+01   3.000000E+01   1.988800E+01   1.784400E+01   2.403150E+01   2.399010E+01   2.884230E+01   2.835530E+01   2.817710E+01   2.867080E+01   2.866350E+01   2.819070E+01   2.869070E+01   2.835300E+01   2.753820E+01   2.684370E+01
   1.797600E+01   2.067110E+01   2.452750E+01   2.136460E+01   2.156210E+01   3.000000E+01   1.986500E+01   1.807300E+01   2.400830E+01   2.391460E+01   2.871690E+01   2.811510E+01   2.883590E+01   2.799160E+01   2.863120E+01   2.861200E+01   2.874880E+01   2.851050E+01   2.830090E+01   2.702930E+01
   1.619700E+01   2.104650E+01   2.290000E+01   2.061480E+01   1.898800E+01   1.859000E+01   1.954900E+01   2.523350E+01   2.297770E+01   2.491840E+01   2.851010E+01   2.867060E+01   2.839740E+01   2.882710E+01   2.858630E+01   2.822210E+01   2.893390E+01   2.851150E+01   2.706270E+01   2.682400E+01
   1.573500E+01   2.091530E+01   2.471440E+01   1.718700E+01   1.889300E+01   2.475840E+01   2.420090E+01   2.439660E+01   2.323320E+01   2.821870E+01   2.935449E+01   2.965368E+01   2.966543E+01   2.938963E+01   2.970134E+01   2.924010E+01   2.775160E+01   2.858110E+01   2.713770E+01   2.733710E+01
   1.512800E+01   1.995100E+01   1.942100E+01   2.272340E+01   2.345750E+01   2.582970E+01   2.383820E+01   2.596390E+01   2.654020E+01   2.729490E+01   2.955065E+01   2.936275E+01   2.945583E+01   2.943809E+01   2.952740E+01   2.975403E+01   2.885550E+01   2.841590E+01   2.617450E+01   2.641930E+01
   1.659000E+01   1.925800E+01   2.056520E+01   1.995100E+01   2.344540E+01   2.401670E+01   2.548730E+01   2.549980E+01   2.729420E+01   2.658660E+01   2.969505E+01   2.945841E+01   2.957573E+01   2.953225E+01   2.961524E+01   2.952060E+01   2.827840E+01   2.835590E+01   2.861750E+01   2.651290E+01
   1.626500E+01   1.787300E+01   2.057590E+01   1.969400E+01   2.280560E+01   2.319610E+01   2.459790E+01   2.656920E+01   2.729020E+01   2.801900E+01   2.913029E+01   2.966094E+01   2.950480E+01   2.981379E+01   2.978971E+01   2.962007E+01   2.860540E+01   2.844780E+01   2.847270E+01   2.729630E+01
   1.498300E+01   1.910300E+01   1.950100E+01   1.916600E+01   2.335550E+01   2.354600E+01   2.457430E+01   2.751250E+01   2.734080E+01   2.815650E+01   2.981709E+01   2.995764E+01   2.921484E+01   2.955962E+01   2.931044E+01   2.915370E+01   2.853890E+01   2.869890E+01   2.837530E+01   2.643900E+01
   1.588900E+01   2.012130E+01   2.196490E+01   2.466160E+01   2.372250E+01   2.477600E+01   2.441040E+01   2.441090E+01   2.735490E+01   2.824320E+01   2.908428E+01   2.943074E+01   2.976561E+01   2.955579E+01   2.998606E+01   2.936529E+01   2.956838E+01   2.850400E+01   2.828810E+01   2.655960E+01
   1.870400E+01   2.034340E+01   2.226440E+01   1.898000E+01   2.542320E+01   2.279630E+01   2.261150E+01   2.479480E+01   2.727830E+01   2.863760E+01   2.966607E+01   2.930585E+01   2.934679E+01   2.940807E+01   2.958754E+01   2.950478E+01   2.928497E+01   2.890150E+01   2.830250E+01   2.781950E+01
   1.740600E+01   2.008970E+01   1.923100E+01   2.540230E+01   2.433930E+01   2.371900E+01   2.423840E+01   2.755090E+01   2.652790E+01   2.793920E+01   2.931448E+01   2.974664E+01   2.908559E+01   2.945654E+01   2.943051E+01   2.924992E+01   2.976223E+01   2.878140E+01   2.889280E+01   2.685130E+01
   3.000000E+01   2.113250E+01   1.906300E+01   2.405370E+01   2.328090E+01   2.343770E+01   2.458820E+01   2.655610E+01   2.761600E+01   2.808960E+01   2.949254E+01   2.931562E+01   2.981123E+01   2.953459E+01   2.928909E+01   2.965929E+01   2.984058E+01   2.852470E+01   2.899920E+01   2.752100E+01
   3.000000E+01   3.000000E+01   1.904900E+01   2.383870E+01   2.360770E+01   2.322910E+01   2.702930E+01   2.699840E+01   2.683600E+01   2.907259E+01   2.983690E+01   2.933995E+01   2.973439E+01   2.966689E+01   2.930768E+01   2.951655E+01   2.936112E+01   2.862630E+01   2.832030E+01   2.853390E+01
   3.000000E+01   3.000000E+01   3.000000E+01   2.264520E+01   2.482690E+01   2.502920E+01   2.471550E+01   2.379130E+01   2.689480E+01   2.866730E+01   2.919916E+01   2.960079E+01   2.952087E+01   2.981649E+01   2.941212E+01   2.925656E+01   2.914979E+01   2.806720E+01   2.814440E+01   2.799780E+01
   3.000000E+01   3.000000E+01   3.000000E+01   3.000000E+01   2.572210E+01   2.515620E+01   2.441080E+01   2.491140E+01   2.677550E+01   2.833170E+01   2.931528E+01   2.959687E+01   2.948693E+01   2.946928E+01   2.974973E+01   2.936698E+01   2.931570E+01   2.856310E+01   2.838260E+01   3.000000E+01
   3.000000E+01   3.000000E+01   3.000000E+01   3.000000E+01   2.410740E+01   2.375250E+01   2.283680E+01   2.696130E+01   2.774640E+01   2.835360E+01   2.968925E+01   3.020274E+01   2.945104E+01   2.892210E+01   2.993506E+01   2.957830E+01   2.968756E+01   2.821890E+01   2.855340E+01   3.000000E+01
   3.000000E+01   3.000000E+01   3.000000E+01   3.000000E+01   3.000000E+01   2.341450E+01   2.525980E+01   2.821450E+01   2.708780E+01   2.838450E+01   2.929168E+01   2.958334E+01   2.943900E+01   2.952562E+01   2.962849E+01   2.967128E+01   2.950422E+01   2.857150E+01   3.000000E+01   3.000000E+01
   3.000000E+01   3.000000E+01   3.000000E+01   3.000000E+01   3.000000E+01   2.484970E+01   2.410400E+01   2.765500E+01   2.727460E+01   2.858110E+01   2.987800E+01   2.953339E+01   2.950564E+01   2.983384E+01   2.932508E+01   2.931810E+01   3.000166E+01   3.000000E+01   3.000000E+01   3.000000E+01
   3.000000E+01   3.000000E+01   3.000000E+01   3.000000E+01   3.000000E+01   2.308620E+01   2.541920E+01   2.747250E+01   2.739620E+01   2.855560E+01   2.946348E+01   2.977469E+01   2.941044E+01   2.939214E+01   2.949401E+01   3.000000E+01   3.000000E+01   3.000000E+01   3.000000E+01   3.000000E+01
         0       0.1                           -1 #prsity layer 1
         0       0.1                           -1 #prsity layer 2
         0       0.1                           -1 #prsity layer 3
        31         1            (20I10)        -1 #icbund layer 1
         1         1         1         1         1         1         1         1         1         1         1         1         1         1         1         1         1         1         1         1
         1         1         1         1         1         1         1         1         1         1         1         1         1         1         1         1         1         1         1         1
         1         1         1         1         1         1         1         1         1         1         1         1         1         1         1         1         1         1         1         1
         1         1         1         1         1         1         1         1         1         1         1         1         1         1         1         1         1         1         1         1
         1         1         1         1         1         1         1         1         1         1         1         1         1         1         1         1         1         1         1         1
         1         1         1         1         1         1         1         1         1         1         1         1         1         1         1         1         1         1         1         1
         1         1         1         1         1         1         1         1         1         1         1         1         1         1         1         1         1         1         1         1
         1         1         1         1         1         1         1         1         1         1         1         1         1         1         1         1         1         1         1         1
         1         1         1         1         0         0         0         1         1         1         1         1         1         1         1         1         1         1         1         1
         1         1         1         1         0         0         0         0         1         1         1         1         1         1         1         1         1         1         1         1
         1         1         1         1         0         0         0         0         1         1         1         1         1         1         1         1         1         1         1         1
         1         1         1         1         0         0         0         0         1         1         1         1         1         1         1         1         1         1         1         1
         1         1         1         1         0         0         0         0         1         1         1         1         1         1         1         1         1         1         1         1
         1         1         1         1         0         0         0         0         1         1         1         1         1         1         1         1         1         1         1         1
         1         1         1         1         0         0         0         0         1         1         1         1         1         1         1         1         1         1         1         1
         1         1         1         1         0         0         0         0         1         1         1         1         1         1         1         1         1         1         1         1
         1         1         1         1         0         0         0         0         1         1         1         1         1         1         1         1         1         1         1         1
         1         1         1         1         0         0         0         0         1         1         1         1         1         1         1         1         1         1         1         1
         1         1         1         1         0         0         0         0         1         1         1         1         1         1         1         1         1         1         1         1
         1         1         1         1         0         0         0         0         1         1         1         1         1         1         1         1         1         1         1         1
         1         1         1         1         0         0         0         0         1         1         1         1         1         1         1         1         1         1         1         1
         1         1         1         1         0         0         1         1         1         1         1         1         1         1         1         1         1         1         1         1
         1         1         1         1         1         0         1         1         1         1         1         1         1         1         1         1         1         1         1         1
         1         1         1         1         1         1         1         1         1         1         1         1         1         1         1         1         1         1         1         1
         1         1         1         1         1         1         1         1         1         1         1         1         1         1         1         1         1         1         1         1
         1         1         1         1         1         1         1         1         1         1         1         1         1         1         1         1         1         1         1         1
         1         1         1         1         1         1         1         1         1         1         1         1         1         1         1         1         1         1         1         1
         1         1         1         1         1         1         1         1         1         1         1         1         1         1         1         1         1         1         1         1
         1         1         1         1         1         1         1         1         1         1         1         1         1         1         1         1         1         1         1         1
         1         1         1         1         1         1         1         1         1         1         1         1         1         1         1         1         1         1         1         1
         1         1         1         1         1         1         1         1         1         1         1         1         1         1         1         1         1         1         1         1
         1         1         1         1         1         1         1         1         1         1         1         1         1         1         1         1         1         1         1         1
         0         1         1         1         1         1         1         1         1         1         1         1         1         1         1         1         1         1         1         1
         0         0         1         1         1         1         1         1         1         1         1         1         1         1         1         1         1         1         1         1
         0         0         0         1         1         1         1         1         1         1         1         1         1         1         1         1         1         1         1         1
         0         0         0         0         1         1         1         1         1         1         1         1         1         1         1         1         1         1         1         0
         0         0         0         0         1         1         1         1         1         1         1         1         1         1         1         1         1         1         1         0
         0         0         0         0         0         1         1         1         1         1         1         1         1         1         1         1         1         1         0         0
         0         0         0         0         0         1         1         1         1         1         1         1         1         1         1         1         1         0         0         0
         0         0         0         0         0        -1        -1        -1        -1        -1        -1        -1        -1        -1        -1         0         0         0         0         0
        31         1            (20I10)        -1 #icbund layer 2
         1         1         1         1         1         1         1         1         1         1         1         1         1         1         1         1         1         1         1         1
         1         1         1         1         1         1         1         1         1         1         1         1         1         1         1         1         1         1         1         1
         1         1         1         1         1         1         1         1         1         1         1         1         1         1         1         1         1         1         1         1
         1         1         1         1         1         1         1         1         1         1         1         1         1         1         1         1         1         1         1         1
         1         1         1         1         1         1         1         1         1         1         1         1         1         1         1         1         1         1         1         1
         1         1         1         1         1         1         1         1         1         1         1         1         1         1         1         1         1         1         1         1
         1         1         1         1         1         1         1         1         1         1         1         1         1         1         1         1         1         1         1         1
         1         1         1         1         1         1         1         1         1         1         1         1         1         1         1         1         1         1         1         1
         1         1         1         1         0         0         0         1         1         1         1         1         1         1         1         1         1         1         1         1
         1         1         1         1         0         0         0         0         1         1         1         1         1         1         1         1         1         1         1         1
         1         1         1         1         0         0         0         0         1         1         1         1         1         1         1         1         1         1         1         1
         1         1         1         1         0         0         0         0         1         1         1         1         1         1         1         1         1         1         1         1
         1         1         1         1         0         0         0         0         1         1         1         1         1         1         1         1         1         1         1         1
         1         1         1         1         0         0         0         0         1         1         1         1         1         1         1         1         1         1         1         1
         1         1         1         1         0         0         0         0         1         1         1         1         1         1         1         1         1         1         1         1
         1         1         1         1         0         0         0         0         1         1         1         1         1         1         1         1         1         1         1         1
         1         1         1         1         0         0         0         0         1         1         1         1         1         1         1         1         1         1         1         1
         1         1         1         1         0         0         0         0         1         1         1         1         1         1         1         1         1         1         1         1
         1         1         1         1         0         0         0         0         1         1         1         1         1         1         1         1         1         1         1         1
         1         1         1         1         0         0         0         0         1         1         1         1         1         1         1         1         1         1         1         1
         1         1         1         1         0         0         0         0         1         1         1         1         1         1         1         1         1         1         1         1
         1         1         1         1         0         0         1         1         1         1         1         1         1         1         1         1         1         1         1         1
         1         1         1         1         1         0         1         1         1         1         1         1         1         1         1         1         1         1         1         1
         1         1         1         1         1         1         1         1         1         1         1         1         1         1         1         1         1         1         1         1
         1         1         1         1         1         1         1         1         1         1         1         1         1         1         1         1         1         1         1         1
         1         1         1         1         1         1         1         1         1         1         1         1         1         1         1         1         1         1         1         1
         1         1         1         1         1         1         1         1         1         1         1         1         1         1         1         1         1         1         1         1
         1         1         1         1         1         1         1         1         1         1         1         1         1         1         1         1         1         1         1         1
         1         1         1         1         1         1         1         1         1         1         1         1         1         1         1         1         1         1         1         1
         1         1         1         1         1         1         1         1         1         1         1         1         1         1         1         1         1         1         1         1
         1         1         1         1         1         1         1         1         1         1         1         1         1         1         1         1         1         1         1         1
         1         1         1         1         1         1         1         1         1         1         1         1         1         1         1         1         1         1         1         1
         0         1         1         1         1         1         1         1         1         1         1         1         1         1         1         1         1         1         1         1
         0         0         1         1         1         1         1         1         1         1         1         1         1         1         1         1         1         1         1         1
         0         0         0         1         1         1         1         1         1         1         1         1         1         1         1         1         1         1         1         1
         0         0         0         0         1         1         1         1         1         1         1         1         1         1         1         1         1         1         1         0
         0         0         0         0         1         1         1         1         1         1         1         1         1         1         1         1         1         1         1         0
         0         0         0         0         0         1         1         1         1         1         1         1         1         1         1         1         1         1         0         0
         0         0         0         0         0         1         1         1         1         1         1         1         1         1         1         1         1         0         0         0
         0         0         0         0         0        -1        -1        -1        -1        -1        -1        -1        -1        -1        -1         0         0         0         0         0
        31         1            (20I10)        -1 #icbund layer 3
         1         1         1         1         1         1         1         1         1         1         1         1         1         1         1         1         1         1         1         1
         1         1         1         1         1         1         1         1         1         1         1         1         1         1         1         1         1         1         1         1
         1         1         1         1         1         1         1         1         1         1         1         1         1         1         1         1         1         1         1         1
         1         1         1         1         1         1         1         1         1         1         1         1         1         1         1         1         1         1         1         1