# Name file for MODPATH, generated by Flopy version 3.2.8.
MPBAS  86 freyberg_mp.mpbas
DIS  11 freyberg.dis
HEAD  88 freyberg.hds
BUDGET  89 freyberg.cbc
