# RCH package for  MODFLOW-NWT, generated by Flopy.
         3        50
         1        -1 # Stress period 1
OPEN/CLOSE                      rech_0.ref               1     (FREE) -1 rech_1                        
         1        -1 # Stress period 2
OPEN/CLOSE                      rech_1.ref               1     (FREE) -1 rech_2                        
        -1        -1 # Stress period 3
