# BAS6 package for  MODFLOW-NWT, generated by Flopy.
 FREE
OPEN/CLOSE                      ibound.ref               1     (FREE) -1 ibound layer 1                
OPEN/CLOSE                      ibound.ref               1     (FREE) -1 ibound layer 2                
OPEN/CLOSE                      ibound.ref               1     (FREE) -1 ibound layer 3                
        -999.99
CONSTANT    3.500000E+01                           #strt layer 1                  
CONSTANT    3.500000E+01                           #strt layer 2                  
CONSTANT    3.500000E+01                           #strt layer 3                  
