# BAS6 package for MODFLOW-NWT generated by Flopy 3.3.6
FREE
INTERNAL               1     (FREE) -1 #ibound_layer_0                
         1         1         1         1         1         1         1         1         1         1         1         1         1         1         1         1         1         1         1         1
         1         1         1         1         1         1         1         1         1         1         1         1         1         1         1         1         1         1         1         1
         1         1         1         1         1         1         1         1         1         1         1         1         1         1         1         1         1         1         1         1
         1         1         1         1         1         1         1         1         1         1         1         1         1         1         1         1         1         1         1         1
         1         1         1         1         1         1         1         1         1         1         1         1         1         1         1         1         1         1         1         1
         1         1         1         1         1         1         1         1         1         1         1         1         1         1         1         1         1         1         1         1
         1         1         1         1         1         1         1         1         1         1         1         1         1         1         1         1         1         1         1         1
         1         1         1         1         1         1         1         1         1         1         1         1         1         1         1         1         1         1         1         1
         1         1         1         1         0         0         0         1         1         1         1         1         1         1         1         1         1         1         1         1
         1         1         1         1         0         0         0         0         1         1         1         1         1         1         1         1         1         1         1         1
         1         1         1         1         0         0         0         0         1         1         1         1         1         1         1         1         1         1         1         1
         1         1         1         1         0         0         0         0         1         1         1         1         1         1         1         1         1         1         1         1
         1         1         1         1         0         0         0         0         1         1         1         1         1         1         1         1         1         1         1         1
         1         1         1         1         0         0         0         0         1         1         1         1         1         1         1         1         1         1         1         1
         1         1         1         1         0         0         0         0         1         1         1         1         1         1         1         1         1         1         1         1
         1         1         1         1         0         0         0         0         1         1         1         1         1         1         1         1         1         1         1         1
         1         1         1         1         0         0         0         0         1         1         1         1         1         1         1         1         1         1         1         1
         1         1         1         1         0         0         0         0         1         1         1         1         1         1         1         1         1         1         1         1
         1         1         1         1         0         0         0         0         1         1         1         1         1         1         1         1         1         1         1         1
         1         1         1         1         0         0         0         0         1         1         1         1         1         1         1         1         1         1         1         1
         1         1         1         1         0         0         0         0         1         1         1         1         1         1         1         1         1         1         1         1
         1         1         1         1         0         0         1         1         1         1         1         1         1         1         1         1         1         1         1         1
         1         1         1         1         1         0         1         1         1         1         1         1         1         1         1         1         1         1         1         1
         1         1         1         1         1         1         1         1         1         1         1         1         1         1         1         1         1         1         1         1
         1         1         1         1         1         1         1         1         1         1         1         1         1         1         1         1         1         1         1         1
         1         1         1         1         1         1         1         1         1         1         1         1         1         1         1         1         1         1         1         1
         1         1         1         1         1         1         1         1         1         1         1         1         1         1         1         1         1         1         1         1
         1         1         1         1         1         1         1         1         1         1         1         1         1         1         1         1         1         1         1         1
         1         1         1         1         1         1         1         1         1         1         1         1         1         1         1         1         1         1         1         1
         1         1         1         1         1         1         1         1         1         1         1         1         1         1         1         1         1         1         1         1
         1         1         1         1         1         1         1         1         1         1         1         1         1         1         1         1         1         1         1         1
         1         1         1         1         1         1         1         1         1         1         1         1         1         1         1         1         1         1         1         1
         0         1         1         1         1         1         1         1         1         1         1         1         1         1         1         1         1         1         1         1
         0         0         1         1         1         1         1         1         1         1         1         1         1         1         1         1         1         1         1         1
         0         0         0         1         1         1         1         1         1         1         1         1         1         1         1         1         1         1         1         1
         0         0         0         0         1         1         1         1         1         1         1         1         1         1         1         1         1         1         1         0
         0         0         0         0         1         1         1         1         1         1         1         1         1         1         1         1         1         1         1         0
         0         0         0         0         0         1         1         1         1         1         1         1         1         1         1         1         1         1         0         0
         0         0         0         0         0         1         1         1         1         1         1         1         1         1         1         1         1         0         0         0
         0         0         0         0         0        -1        -1        -1        -1        -1        -1        -1        -1        -1        -1         0         0         0         0         0
INTERNAL               1     (FREE) -1 #ibound_layer_1                
         1         1         1         1         1         1         1         1         1         1         1         1         1         1         1         1         1         1         1         1
         1         1         1         1         1         1         1         1         1         1         1         1         1         1         1         1         1         1         1         1
         1         1         1         1         1         1         1         1         1         1         1         1         1         1         1         1         1         1         1         1
         1         1         1         1         1         1         1         1         1         1         1         1         1         1         1         1         1         1         1         1
         1         1         1         1         1         1         1         1         1         1         1         1         1         1         1         1         1         1         1         1
         1         1         1         1         1         1         1         1         1         1         1         1         1         1         1         1         1         1         1         1
         1         1         1         1         1         1         1         1         1         1         1         1         1         1         1         1         1         1         1         1
         1         1         1         1         1         1         1         1         1         1         1         1         1         1         1         1         1         1         1         1
         1         1         1         1         0         0         0         1         1         1         1         1         1         1         1         1         1         1         1         1
         1         1         1         1         0         0         0         0         1         1         1         1         1         1         1         1         1         1         1         1
         1         1         1         1         0         0         0         0         1         1         1         1         1         1         1         1         1         1         1         1
         1         1         1         1         0         0         0         0         1         1         1         1         1         1         1         1         1         1         1         1
         1         1         1         1         0         0         0         0         1         1         1         1         1         1         1         1         1         1         1         1
         1         1         1         1         0         0         0         0         1         1         1         1         1         1         1         1         1         1         1         1
         1         1         1         1         0         0         0         0         1         1         1         1         1         1         1         1         1         1         1         1
         1         1         1         1         0         0         0         0         1         1         1         1         1         1         1         1         1         1         1         1
         1         1         1         1         0         0         0         0         1         1         1         1         1         1         1         1         1         1         1         1
         1         1         1         1         0         0         0         0         1         1         1         1         1         1         1         1         1         1         1         1
         1         1         1         1         0         0         0         0         1         1         1         1         1         1         1         1         1         1         1         1
         1         1         1         1         0         0         0         0         1         1         1         1         1         1         1         1         1         1         1         1
         1         1         1         1         0         0         0         0         1         1         1         1         1         1         1         1         1         1         1         1
         1         1         1         1         0         0         1         1         1         1         1         1         1         1         1         1         1         1         1         1
         1         1         1         1         1         0         1         1         1         1         1         1         1         1         1         1         1         1         1         1
         1         1         1         1         1         1         1         1         1         1         1         1         1         1         1         1         1         1         1         1
         1         1         1         1         1         1         1         1         1         1         1         1         1         1         1         1         1         1         1         1
         1         1         1         1         1         1         1         1         1         1         1         1         1         1         1         1         1         1         1         1
         1         1         1         1         1         1         1         1         1         1         1         1         1         1         1         1         1         1         1         1
         1         1         1         1         1         1         1         1         1         1         1         1         1         1         1         1         1         1         1         1
         1         1         1         1         1         1         1         1         1         1         1         1         1         1         1         1         1         1         1         1
         1         1         1         1         1         1         1         1         1         1         1         1         1         1         1         1         1         1         1         1
         1         1         1         1         1         1         1         1         1         1         1         1         1         1         1         1         1         1         1         1
         1         1         1         1         1         1         1         1         1         1         1         1         1         1         1         1         1         1         1         1
         0         1         1         1         1         1         1         1         1         1         1         1         1         1         1         1         1         1         1         1
         0         0         1         1         1         1         1         1         1         1         1         1         1         1         1         1         1         1         1         1
         0         0         0         1         1         1         1         1         1         1         1         1         1         1         1         1         1         1         1         1
         0         0         0         0         1         1         1         1         1         1         1         1         1         1         1         1         1         1         1         0
         0         0         0         0         1         1         1         1         1         1         1         1         1         1         1         1         1         1         1         0
         0         0         0         0         0         1         1         1         1         1         1         1         1         1         1         1         1         1         0         0
         0         0         0         0         0         1         1         1         1         1         1         1         1         1         1         1         1         0         0         0
         0         0         0         0         0        -1        -1        -1        -1        -1        -1        -1        -1        -1        -1         0         0         0         0         0
INTERNAL               1     (FREE) -1 #ibound_layer_2                
         1         1         1         1         1         1         1         1         1         1         1         1         1         1         1         1         1         1         1         1
         1         1         1         1         1         1         1         1         1         1         1         1         1         1         1         1         1         1         1         1
         1         1         1         1         1         1         1         1         1         1         1         1         1         1         1         1         1         1         1         1
         1         1         1         1         1         1         1         1         1         1         1         1         1         1         1         1         1         1         1         1
         1         1         1         1         1         1         1         1         1         1         1         1         1         1         1         1         1         1         1         1
         1         1         1         1         1         1         1         1         1         1         1         1         1         1         1         1         1         1         1         1
         1         1         1         1         1         1         1         1         1         1         1         1         1         1         1         1         1         1         1         1
         1         1         1         1         1         1         1         1         1         1         1         1         1         1         1         1         1         1         1         1
         1         1         1         1         0         0         0         1         1         1         1         1         1         1         1         1         1         1         1         1
         1         1         1         1         0         0         0         0         1         1         1         1         1         1         1         1         1         1         1         1
         1         1         1         1         0         0         0         0         1         1         1         1         1         1         1         1         1         1         1         1
         1         1         1         1         0         0         0         0         1         1         1         1         1         1         1         1         1         1         1         1
         1         1         1         1         0         0         0         0         1         1         1         1         1         1         1         1         1         1         1         1
         1         1         1         1         0         0         0         0         1         1         1         1         1         1         1         1         1         1         1         1
         1         1         1         1         0         0         0         0         1         1         1         1         1         1         1         1         1         1         1         1
         1         1         1         1         0         0         0         0         1         1         1         1         1         1         1         1         1         1         1         1
         1         1         1         1         0         0         0         0         1         1         1         1         1         1         1         1         1         1         1         1
         1         1         1         1         0         0         0         0         1         1         1         1         1         1         1         1         1         1         1         1
         1         1         1         1         0         0         0         0         1         1         1         1         1         1         1         1         1         1         1         1
         1         1         1         1         0         0         0         0         1         1         1         1         1         1         1         1         1         1         1         1
         1         1         1         1         0         0         0         0         1         1         1         1         1         1         1         1         1         1         1         1
         1         1         1         1         0         0         1         1         1         1         1         1         1         1         1         1         1         1         1         1
         1         1         1         1         1         0         1         1         1         1         1         1         1         1         1         1         1         1         1         1
         1         1         1         1         1         1         1         1         1         1         1         1         1         1         1         1         1         1         1         1
         1         1         1         1         1         1         1         1         1         1         1         1         1         1         1         1         1         1         1         1
         1         1         1         1         1         1         1         1         1         1         1         1         1         1         1         1         1         1         1         1
         1         1         1         1         1         1         1         1         1         1         1         1         1         1         1         1         1         1         1         1
         1         1         1         1         1         1         1         1         1         1         1         1         1         1         1         1         1         1         1         1
         1         1         1         1         1         1         1         1         1         1         1         1         1         1         1         1         1         1         1         1
         1         1         1         1         1         1         1         1         1         1         1         1         1         1         1         1         1         1         1         1
         1         1         1         1         1         1         1         1         1         1         1         1         1         1         1         1         1         1         1         1
         1         1         1         1         1         1         1         1         1         1         1         1         1         1         1         1         1         1         1         1
         0         1         1         1         1         1         1         1         1         1         1         1         1         1         1         1         1         1         1         1
         0         0         1         1         1         1         1         1         1         1         1         1         1         1         1         1         1         1         1         1
         0         0         0         1         1         1         1         1         1         1         1         1         1         1         1         1         1         1         1         1
         0         0         0         0         1         1         1         1         1         1         1         1         1         1         1         1         1         1         1         0
         0         0         0         0         1         1         1         1         1         1         1         1         1         1         1         1         1         1         1         0
         0         0         0         0         0         1         1         1         1         1         1         1         1         1         1         1         1         1         0         0
         0         0         0         0         0         1         1         1         1         1         1         1         1         1         1         1         1         0         0         0
         0         0         0         0         0        -1        -1        -1        -1        -1        -1        -1        -1        -1        -1         0         0         0         0         0
   -999.99
INTERNAL               1     (FREE) -1 #strt_layer_0                  
   3.500000E+01   3.500000E+01   3.500000E+01   3.500000E+01   3.500000E+01   3.500000E+01   3.500000E+01   3.500000E+01   3.500000E+01   3.500000E+01   3.500000E+01   3.500000E+01   3.500000E+01   3.500000E+01   3.500000E+01   3.500000E+01   3.500000E+01   3.500000E+01   3.500000E+01   3.500000E+01
   3.500000E+01   3.500000E+01   3.500000E+01   3.500000E+01   3.500000E+01   3.500000E+01   3.500000E+01   3.500000E+01   3.500000E+01   3.500000E+01   3.500000E+01   3.500000E+01   3.500000E+01   3.500000E+01   3.500000E+01   3.500000E+01   3.500000E+01   3.500000E+01   3.500000E+01   3.500000E+01
   3.500000E+01   3.500000E+01   3.500000E+01   3.500000E+01   3.500000E+01   3.500000E+01   3.500000E+01   3.500000E+01   3.500000E+01   3.500000E+01   3.500000E+01   3.500000E+01   3.500000E+01   3.500000E+01   3.500000E+01   3.500000E+01   3.500000E+01   3.500000E+01   3.500000E+01   3.500000E+01
   3.500000E+01   3.500000E+01   3.500000E+01   3.500000E+01   3.500000E+01   3.500000E+01   3.500000E+01   3.500000E+01   3.500000E+01   3.500000E+01   3.500000E+01   3.500000E+01   3.500000E+01   3.500000E+01   3.500000E+01   3.500000E+01   3.500000E+01   3.500000E+01   3.500000E+01   3.500000E+01
   3.500000E+01   3.500000E+01   3.500000E+01   3.500000E+01   3.500000E+01   3.500000E+01   3.500000E+01   3.500000E+01   3.500000E+01   3.500000E+01   3.500000E+01   3.500000E+01   3.500000E+01   3.500000E+01   3.500000E+01   3.500000E+01   3.500000E+01   3.500000E+01   3.500000E+01   3.500000E+01
   3.500000E+01   3.500000E+01   3.500000E+01   3.500000E+01   3.500000E+01   3.500000E+01   3.500000E+01   3.500000E+01   3.500000E+01   3.500000E+01   3.500000E+01   3.500000E+01   3.500000E+01   3.500000E+01   3.500000E+01   3.500000E+01   3.500000E+01   3.500000E+01   3.500000E+01   3.500000E+01
   3.500000E+01   3.500000E+01   3.500000E+01   3.500000E+01   3.500000E+01   3.500000E+01   3.500000E+01   3.500000E+01   3.500000E+01   3.500000E+01   3.500000E+01   3.500000E+01   3.500000E+01   3.500000E+01   3.500000E+01   3.500000E+01   3.500000E+01   3.500000E+01   3.500000E+01   3.500000E+01
   3.500000E+01   3.500000E+01   3.500000E+01   3.500000E+01   3.500000E+01   3.500000E+01   3.500000E+01   3.500000E+01   3.500000E+01   3.500000E+01   3.500000E+01   3.500000E+01   3.500000E+01   3.500000E+01   3.500000E+01   3.500000E+01   3.500000E+01   3.500000E+01   3.500000E+01   3.500000E+01
   3.500000E+01   3.500000E+01   3.500000E+01   3.500000E+01   3.500000E+01   3.500000E+01   3.500000E+01   3.500000E+01   3.500000E+01   3.500000E+01   3.500000E+01   3.500000E+01   3.500000E+01   3.500000E+01   3.500000E+01   3.500000E+01   3.500000E+01   3.500000E+01   3.500000E+01   3.500000E+01
   3.500000E+01   3.500000E+01   3.500000E+01   3.500000E+01   3.500000E+01   3.500000E+01   3.500000E+01   3.500000E+01   3.500000E+01   3.500000E+01   3.500000E+01   3.500000E+01   3.500000E+01   3.500000E+01   3.500000E+01   3.500000E+01   3.500000E+01   3.500000E+01   3.500000E+01   3.500000E+01
   3.500000E+01   3.500000E+01   3.500000E+01   3.500000E+01   3.500000E+01   3.500000E+01   3.500000E+01   3.500000E+01   3.500000E+01   3.500000E+01   3.500000E+01   3.500000E+01   3.500000E+01   3.500000E+01   3.500000E+01   3.500000E+01   3.500000E+01   3.500000E+01   3.500000E+01   3.500000E+01
   3.500000E+01   3.500000E+01   3.500000E+01   3.500000E+01   3.500000E+01   3.500000E+01   3.500000E+01   3.500000E+01   3.500000E+01   3.500000E+01   3.500000E+01   3.500000E+01   3.500000E+01   3.500000E+01   3.500000E+01   3.500000E+01   3.500000E+01   3.500000E+01   3.500000E+01   3.500000E+01
   3.500000E+01   3.500000E+01   3.500000E+01   3.500000E+01   3.500000E+01   3.500000E+01   3.500000E+01   3.500000E+01   3.500000E+01   3.500000E+01   3.500000E+01   3.500000E+01   3.500000E+01   3.500000E+01   3.500000E+01   3.500000E+01   3.500000E+01   3.500000E+01   3.500000E+01   3.500000E+01
   3.500000E+01   3.500000E+01   3.500000E+01   3.500000E+01   3.500000E+01   3.500000E+01   3.500000E+01   3.500000E+01   3.500000E+01   3.500000E+01   3.500000E+01   3.500000E+01   3.500000E+01   3.500000E+01   3.500000E+01   3.500000E+01   3.500000E+01   3.500000E+01   3.500000E+01   3.500000E+01
   3.500000E+01   3.500000E+01   3.500000E+01   3.500000E+01   3.500000E+01   3.500000E+01   3.500000E+01   3.500000E+01   3.500000E+01   3.500000E+01   3.500000E+01   3.500000E+01   3.500000E+01   3.500000E+01   3.500000E+01   3.500000E+01   3.500000E+01   3.500000E+01   3.500000E+01   3.500000E+01
   3.500000E+01   3.500000E+01   3.500000E+01   3.500000E+01   3.500000E+01   3.500000E+01   3.500000E+01   3.500000E+01   3.500000E+01   3.500000E+01   3.500000E+01   3.500000E+01   3.500000E+01   3.500000E+01   3.500000E+01   3.500000E+01   3.500000E+01   3.500000E+01   3.500000E+01   3.500000E+01
   3.500000E+01   3.500000E+01   3.500000E+01   3.500000E+01   3.500000E+01   3.500000E+01   3.500000E+01   3.500000E+01   3.500000E+01   3.500000E+01   3.500000E+01   3.500000E+01   3.500000E+01   3.500000E+01   3.500000E+01   3.500000E+01   3.500000E+01   3.500000E+01   3.500000E+01   3.500000E+01
   3.500000E+01   3.500000E+01   3.500000E+01   3.500000E+01   3.500000E+01   3.500000E+01   3.500000E+01   3.500000E+01   3.500000E+01   3.500000E+01   3.500000E+01   3.500000E+01   3.500000E+01   3.500000E+01   3.500000E+01   3.500000E+01   3.500000E+01   3.500000E+01   3.500000E+01   3.500000E+01