# UPW package for MODFLOW-NWT generated by Flopy 3.3.6
        50    -1E+30         0         0 
         0         0         0
         0         0         0
   1.000000E+00   1.000000E+00   1.000000E+00
         0         0         0
         0         0         0
INTERNAL               1     (FREE) -1 #hk                            
   5.947512E+00   5.947512E+00   5.947512E+00   5.947512E+00   5.947512E+00   5.947512E+00   5.947512E+00   5.947512E+00   5.947512E+00   5.947512E+00   5.947512E+00   5.947512E+00   5.947512E+00   5.947512E+00   5.947512E+00   5.947512E+00   5.947512E+00   5.947512E+00   5.947512E+00   5.947512E+00
   5.947512E+00   5.947512E+00   5.947512E+00   5.947512E+00   5.947512E+00   5.947512E+00   5.947512E+00   5.947512E+00   5.947512E+00   5.947512E+00   5.947512E+00   5.947512E+00   5.947512E+00   5.947512E+00   5.947512E+00   5.947512E+00   5.947512E+00   5.947512E+00   5.947512E+00   5.947512E+00
   5.947512E+00   5.947512E+00   5.947512E+00   5.947512E+00   5.947512E+00   5.947512E+00   5.947512E+00   5.947512E+00   5.947512E+00   5.947512E+00   5.947512E+00   5.947512E+00   5.947512E+00   5.947512E+00   5.947512E+00   5.947512E+00   5.947512E+00   5.947512E+00   5.947512E+00   5.947512E+00
   5.947512E+00   5.947512E+00   5.947512E+00   5.947512E+00   5.947512E+00   5.947512E+00   5.947512E+00   5.947512E+00   5.947512E+00   5.947512E+00   5.947512E+00   5.947512E+00   5.947512E+00   5.947512E+00   5.947512E+00   5.947512E+00   5.947512E+00   5.947512E+00   5.947512E+00   5.947512E+00
   5.947512E+00   5.947512E+00   5.947512E+00   5.947512E+00   5.947512E+00   5.947512E+00   5.947512E+00   5.947512E+00   5.947512E+00   5.947512E+00   5.947512E+00   5.947512E+00   5.947512E+00   5.947512E+00   5.947512E+00   5.947512E+00   5.947512E+00   5.947512E+00   5.947512E+00   5.947512E+00
   5.947512E+00   5.947512E+00   5.947512E+00   5.947512E+00   5.947512E+00   5.947512E+00   5.947512E+00   5.947512E+00   5.947512E+00   5.947512E+00   5.947512E+00   5.947512E+00   5.947512E+00   5.947512E+00   5.947512E+00   5.947512E+00   5.947512E+00   5.947512E+00   5.947512E+00   5.947512E+00
   5.947512E+00   5.947512E+00   5.947512E+00   5.947512E+00   5.947512E+00   5.947512E+00   5.947512E+00   5.947512E+00   5.947512E+00   5.947512E+00   5.947512E+00   5.947512E+00   5.947512E+00   5.947512E+00   5.947512E+00   5.947512E+00   5.947512E+00   5.947512E+00   5.947512E+00   5.947512E+00
   5.947512E+00   5.947512E+00   5.947512E+00   5.947512E+00   5.947512E+00   5.947512E+00   5.947512E+00   5.947512E+00   5.947512E+00   5.947512E+00   5.947512E+00   5.947512E+00   5.947512E+00   5.947512E+00   5.947512E+00   5.947512E+00   5.947512E+00   5.947512E+00   5.947512E+00   5.947512E+00
   5.947512E+00   5.947512E+00   5.947512E+00   5.947512E+00   0.000000E+00   0.000000E+00   0.000000E+00   5.947512E+00   5.947512E+00   5.947512E+00   5.947512E+00   5.947512E+00   5.947512E+00   5.947512E+00   5.947512E+00   5.947512E+00   5.947512E+00   5.947512E+00   5.947512E+00   5.947512E+00
   5.947512E+00   5.947512E+00   5.947512E+00   5.947512E+00   0.000000E+00   0.000000E+00   0.000000E+00   0.000000E+00   5.947512E+00   5.947512E+00   5.947512E+00   5.947512E+00   5.947512E+00   5.947512E+00   5.947512E+00   5.947512E+00   5.947512E+00   5.947512E+00   5.947512E+00   5.947512E+00
   5.947512E+00   5.947512E+00   5.947512E+00   5.947512E+00   0.000000E+00   0.000000E+00   0.000000E+00   0.000000E+00   5.947512E+00   5.947512E+00   5.947512E+00   5.947512E+00   5.947512E+00   5.947512E+00   5.947512E+00   5.947512E+00   5.947512E+00   5.947512E+00   5.947512E+00   5.947512E+00
   5.947512E+00   5.947512E+00   5.947512E+00   5.947512E+00   0.000000E+00   0.000000E+00   0.000000E+00   0.000000E+00   5.947512E+00   5.947512E+00   5.947512E+00   5.947512E+00   5.947512E+00   5.947512E+00   5.947512E+00   5.947512E+00   5.947512E+00   5.947512E+00   5.947512E+00   5.947512E+00
   5.947512E+00   5.947512E+00   5.947512E+00   5.947512E+00   0.000000E+00   0.000000E+00   0.000000E+00   0.000000E+00   5.947512E+00   5.947512E+00   5.947512E+00   5.947512E+00   5.947512E+00   5.947512E+00   5.947512E+00   5.947512E+00   5.947512E+00   5.947512E+00   5.947512E+00   5.947512E+00
   5.947512E+00   5.947512E+00   5.947512E+00   5.947512E+00   0.000000E+00   0.000000E+00   0.000000E+00   0.000000E+00   5.947512E+00   5.947512E+00   5.947512E+00   5.947512E+00   5.947512E+00   5.947512E+00   5.947512E+00   5.947512E+00   5.947512E+00   5.947512E+00   5.947512E+00   5.947512E+00
   5.947512E+00   5.947512E+00   5.947512E+00   5.947512E+00   0.000000E+00   0.000000E+00   0.000000E+00   0.000000E+00   5.947512E+00   5.947512E+00   5.947512E+00   5.947512E+00   5.947512E+00   5.947512E+00   5.947512E+00   5.947512E+00   5.947512E+00   5.947512E+00   5.947512E+00   5.947512E+00
   5.947512E+00   5.947512E+00   5.947512E+00   5.947512E+00   0.000000E+00   0.000000E+00   0.000000E+00   0.000000E+00   5.947512E+00   5.947512E+00   5.947512E+00   5.947512E+00   5.947512E+00   5.947512E+00   5.947512E+00   5.947512E+00   5.947512E+00   5.947512E+00   5.947512E+00   5.947512E+00
   5.947512E+00   5.947512E+00   5.947512E+00   5.947512E+00   0.000000E+00   0.000000E+00   0.000000E+00   0.000000E+00   5.947512E+00   5.947512E+00   5.947512E+00   5.947512E+00   5.947512E+00   5.947512E+00   5.947512E+00   5.947512E+00   5.947512E+00   5.947512E+00   5.947512E+00   5.947512E+00
   5.947512E+00   5.947512E+00   5.947512E+00   5.947512E+00   0.000000E+00   0.000000E+00   0.000000E+00   0.000000E+00   5.947512E+00   5.947512E+00   5.947512E+00   5.947512E+00   5.947512E+00   5.947512E+00   5.947512E+00   5.947512E+00   5.947512E+00   5.947512E+00   5.947512E+00   5.947512E+00
   5.947512E+00   5.947512E+00   5.947512E+00   5.947512E+00   0.000000E+00   0.000000E+00   0.000000E+00   0.000000E+00   5.947512E+00   5.947512E+00   5.947512E+00   5.947512E+00   5.947512E+00   5.947512E+00   5.947512E+00   5.947512E+00   5.947512E+00   5.947512E+00   5.947512E+00   5.947512E+00
   5.947512E+00   5.947512E+00   5.947512E+00   5.947512E+00   0.000000E+00   0.000000E+00   0.000000E+00   0.000000E+00   5.947512E+00   5.947512E+00   5.947512E+00   5.947512E+00   5.947512E+00   5.947512E+00   5.947512E+00   5.947512E+00   5.947512E+00   5.947512E+00   5.947512E+00   5.947512E+00
   5.947512E+00   5.947512E+00   5.947512E+00   5.947512E+00   0.000000E+00   0.000000E+00   0.000000E+00   0.000000E+00   5.947512E+00   5.947512E+00   5.947512E+00   5.947512E+00   5.947512E+00   5.947512E+00   5.947512E+00   5.947512E+00   5.947512E+00   5.947512E+00   5.947512E+00   5.947512E+00
   5.947512E+00   5.947512E+00   5.947512E+00   5.947512E+00   0.000000E+00   0.000000E+00   5.947512E+00   5.947512E+00   5.947512E+00   5.947512E+00   5.947512E+00   5.947512E+00   5.947512E+00   5.947512E+00   5.947512E+00   5.947512E+00   5.947512E+00   5.947512E+00   5.947512E+00   5.947512E+00
   5.947512E+00   5.947512E+00   5.947512E+00   5.947512E+00   5.947512E+00   0.000000E+00   5.947512E+00   5.947512E+00   5.947512E+00   5.947512E+00   5.947512E+00   5.947512E+00   5.947512E+00   5.947512E+00   5.947512E+00   5.947512E+00   5.947512E+00   5.947512E+00   5.947512E+00   5.947512E+00
   5.947512E+00   5.947512E+00   5.947512E+00   5.947512E+00   5.947512E+00   5.947512E+00   5.947512E+00   5.947512E+00   5.947512E+00   5.947512E+00   5.947512E+00   5.947512E+00   5.947512E+00   5.947512E+00   5.947512E+00   5.947512E+00   5.947512E+00   5.947512E+00   5.947512E+00   5.947512E+00
   5.947512E+00   5.947512E+00   5.947512E+00   5.947512E+00   5.947512E+00   5.947512E+00   5.947512E+00   5.947512E+00   5.947512E+00   5.947512E+00   5.947512E+00   5.947512E+00   5.947512E+00   5.947512E+00   5.947512E+00   5.947512E+00   5.947512E+00   5.947512E+00   5.947512E+00   5.947512E+00
   5.947512E+00   5.947512E+00   5.947512E+00   5.947512E+00   5.947512E+00   5.947512E+00   5.947512E+00   5.947512E+00   5.947512E+00   5.947512E+00   5.947512E+00   5.947512E+00   5.947512E+00   5.947512E+00   5.947512E+00   5.947512E+00   5.947512E+00   5.947512E+00   5.947512E+00   5.947512E+00
   5.947512E+00   5.947512E+00   5.947512E+00   5.947512E+00   5.947512E+00   5.947512E+00   5.947512E+00   5.947512E+00   5.947512E+00   5.947512E+00   5.947512E+00   5.947512E+00   5.947512E+00   5.947512E+00   5.947512E+00   5.947512E+00   5.947512E+00   5.947512E+00   5.947512E+00   5.947512E+00
   5.947512E+00   5.947512E+00   5.947512E+00   5.947512E+00   5.947512E+00   5.947512E+00   5.947512E+00   5.947512E+00   5.947512E+00   5.947512E+00   5.947512E+00   5.947512E+00   5.947512E+00   5.947512E+00   5.947512E+00   5.947512E+00   5.947512E+00   5.947512E+00   5.947512E+00   5.947512E+00
   5.947512E+00   5.947512E+00   5.947512E+00   5.947512E+00   5.947512E+00   5.947512E+00   5.947512E+00   5.947512E+00   5.947512E+00   5.947512E+00   5.947512E+00   5.947512E+00   5.947512E+00   5.947512E+00   5.947512E+00   5.947512E+00   5.947512E+00   5.947512E+00   5.947512E+00   5.947512E+00
   5.947512E+00   5.947512E+00   5.947512E+00   5.947512E+00   5.947512E+00   5.947512E+00   5.947512E+00   5.947512E+00   5.947512E+00   5.947512E+00   5.947512E+00   5.947512E+00   5.947512E+00   5.947512E+00   5.947512E+00   5.947512E+00   5.947512E+00   5.947512E+00   5.947512E+00   5.947512E+00
   5.947512E+00   5.947512E+00   5.947512E+00   5.947512E+00   5.947512E+00   5.947512E+00   5.947512E+00   5.947512E+00   5.947512E+00   5.947512E+00   5.947512E+00   5.947512E+00   5.947512E+00   5.947512E+00   5.947512E+00   5.947512E+00   5.947512E+00   5.947512E+00   5.947512E+00   5.947512E+00
   5.947512E+00   5.947512E+00   5.947512E+00   5.947512E+00   5.947512E+00   5.947512E+00   5.947512E+00   5.947512E+00   5.947512E+00   5.947512E+00   5.947512E+00   5.947512E+00   5.947512E+00   5.947512E+00   5.947512E+00   5.947512E+00   5.947512E+00   5.947512E+00   5.947512E+00   5.947512E+00
   0.000000E+00   5.947512E+00   5.947512E+00   5.947512E+00   5.947512E+00   5.947512E+00   5.947512E+00   5.947512E+00   5.947512E+00   5.947512E+00   5.947512E+00   5.947512E+00   5.947512E+00   5.947512E+00   5.947512E+00   5.947512E+00   5.947512E+00   5.947512E+00   5.947512E+00   5.947512E+00
   0.000000E+00   0.000000E+00   5.947512E+00   5.947512E+00   5.947512E+00   5.947512E+00   5.947512E+00   5.947512E+00   5.947512E+00   5.947512E+00   5.947512E+00   5.947512E+00   5.947512E+00   5.947512E+00   5.947512E+00   5.947512E+00   5.947512E+00   5.947512E+00   5.947512E+00   5.947512E+00
   0.000000E+00   0.000000E+00   0.000000E+00   5.947512E+00   5.947512E+00   5.947512E+00   5.947512E+00   5.947512E+00   5.947512E+00   5.947512E+00   5.947512E+00   5.947512E+00   5.947512E+00   5.947512E+00   5.947512E+00   5.947512E+00   5.947512E+00   5.947512E+00   5.947512E+00   5.947512E+00
   0.000000E+00   0.000000E+00   0.000000E+00   0.000000E+00   5.947512E+00   5.947512E+00   5.947512E+00   5.947512E+00   5.947512E+00   5.947512E+00   5.947512E+00   5.947512E+00   5.947512E+00   5.947512E+00   5.947512E+00   5.947512E+00   5.947512E+00   5.947512E+00   5.947512E+00   0.000000E+00
   0.000000E+00   0.000000E+00   0.000000E+00   0.000000E+00   5.947512E+00   5.947512E+00   5.947512E+00   5.947512E+00   5.947512E+00   5.947512E+00   5.947512E+00   5.947512E+00   5.947512E+00   5.947512E+00   5.947512E+00   5.947512E+00   5.947512E+00   5.947512E+00   5.947512E+00   0.000000E+00
   0.000000E+00   0.000000E+00   0.000000E+00   0.000000E+00   0.000000E+00   5.947512E+00   5.947512E+00   5.947512E+00   5.947512E+00   5.947512E+00   5.947512E+00   5.947512E+00   5.947512E+00   5.947512E+00   5.947512E+00   5.947512E+00   5.947512E+00   5.947512E+00   0.000000E+00   0.000000E+00
   0.000000E+00   0.000000E+00   0.000000E+00   0.000000E+00   0.000000E+00   5.947512E+00   5.947512E+00   5.947512E+00   5.947512E+00   5.947512E+00   5.947512E+00   5.947512E+00   5.947512E+00   5.947512E+00   5.947512E+00   5.947512E+00   5.947512E+00   0.000000E+00   0.000000E+00   0.000000E+00
   0.000000E+00   0.000000E+00   0.000000E+00   0.000000E+00   0.000000E+00   5.947512E+00   5.947512E+00   5.947512E+00   5.947512E+00   5.947512E+00   5.947512E+00   5.947512E+00   5.947512E+00   6.006987E+00   5.947512E+00   0.000000E+00   0.000000E+00   0.000000E+00   0.000000E+00   0.000000E+00
CONSTANT    1.000000E+00                           #vk                            
CONSTANT    1.000000E-04                           #ss                            
INTERNAL               1     (FREE) -1 #hk                            
   5.947512E+00   5.947512E+00   5.947512E+00   5.947512E+00   5.947512E+00   5.947512E+00   5.947512E+00   5.947512E+00   5.947512E+00   5.947512E+00   5.947512E+00   5.947512E+00   5.947512E+00   5.947512E+00   5.947512E+00   5.947512E+00   5.947512E+00   5.947512E+00   5.947512E+00   5.947512E+00
   5.947512E+00   5.947512E+00   5.947512E+00   5.947512E+00   5.947512E+00   5.947512E+00   5.947512E+00   5.947512E+00   5.947512E+00   5.947512E+00   5.947512E+00   5.947512E+00   5.947512E+00   5.947512E+00   5.947512E+00   5.947512E+00   5.947512E+00   5.947512E+00   5.947512E+00   5.947512E+00
   5.947512E+00   5.947512E+00   5.947512E+00   5.947512E+00   5.947512E+00   5.947512E+00   5.947512E+00   5.947512E+00   5.947512E+00   5.947512E+00   5.947512E+00   5.947512E+00   5.947512E+00   5.947512E+00   5.947512E+00   5.947512E+00   5.947512E+00   5.947512E+00   5.947512E+00   5.947512E+00
   5.947512E+00   5.947512E+00   5.947512E+00   5.947512E+00   5.947512E+00   5.947512E+00   5.947512E+00   5.947512E+00   5.947512E+00   5.947512E+00   5.947512E+00   5.947512E+00   5.947512E+00   5.947512E+00   5.947512E+00   5.947512E+00   5.947512E+00   5.947512E+00   5.947512E+00   5.947512E+00
   5.947512E+00   5.947512E+00   5.947512E+00   5.947512E+00   5.947512E+00   5.947512E+00   5.947512E+00   5.947512E+00   5.947512E+00   5.947512E+00   5.947512E+00   5.947512E+00   5.947512E+00   5.947512E+00   5.947512E+00   5.947512E+00   5.947512E+00   5.947512E+00   5.947512E+00   5.947512E+00
   5.947512E+00   5.947512E+00   5.947512E+00   5.947512E+00   5.947512E+00   5.947512E+00   5.947512E+00   5.947512E+00   5.947512E+00   5.947512E+00   5.947512E+00   5.947512E+00   5.947512E+00   5.947512E+00   5.947512E+00   5.947512E+00   5.947512E+00   5.947512E+00   5.947512E+00   5.947512E+00
   5.947512E+00   5.947512E+00   5.947512E+00   5.947512E+00   5.947512E+00   5.947512E+00   5.947512E+00   5.947512E+00   5.947512E+00   5.947512E+00   5.947512E+00   5.947512E+00   5.947512E+00   5.947512E+00   5.947512E+00   5.947512E+00   5.947512E+00   5.947512E+00   5.947512E+00   5.947512E+00
   5.947512E+00   5.947512E+00   5.947512E+00   5.947512E+00   5.947512E+00   5.947512E+00   5.947512E+00   5.947512E+00   5.947512E+00   5.947512E+00   5.947512E+00   5.947512E+00   5.947512E+00   5.947512E+00   5.947512E+00   5.947512E+00   5.947512E+00   5.947512E+00   5.947512E+00   5.947512E+00
   5.947512E+00   5.947512E+00   5.947512E+00   5.947512E+00   0.000000E+00   0.000000E+00   0.000000E+00   5.947512E+00   5.947512E+00   5.947512E+00   5.947512E+00   5.947512E+00   5.947512E+00   5.947512E+00   5.947512E+00   5.947512E+00   5.947512E+00   5.947512E+00   5.947512E+00   5.947512E+00
   5.947512E+00   5.947512E+00   5.947512E+00   5.947512E+00   0.000000E+00   0.000000E+00   0.000000E+00   0.000000E+00   5.947512E+00   5.947512E+00   5.947512E+00   5.947512E+00   5.947512E+00   5.947512E+00   5.947512E+00   5.947512E+00   5.947512E+00   5.947512E+00   5.947512E+00   5.947512E+00
   5.947512E+00   5.947512E+00   5.947512E+00   5.947512E+00   0.000000E+00   0.000000E+00   0.000000E+00   0.000000E+00   5.947512E+00   5.947512E+00   5.947512E+00   5.947512E+00   5.947512E+00   5.947512E+00   5.947512E+00   5.947512E+00   5.947512E+00   5.947512E+00   5.947512E+00   5.947512E+00
   5.947512E+00   5.947512E+00   5.947512E+00   5.947512E+00   0.000000E+00   0.000000E+00   0.000000E+00   0.000000E+00   5.947512E+00   5.947512E+00   5.947512E+00   5.947512E+00   5.947512E+00   5.947512E+00   5.947512E+00   5.947512E+00   5.947512E+00   5.947512E+00   5.947512E+00   5.947512E+00
   5.947512E+00   5.947512E+00   5.947512E+00   5.947512E+00   0.000000E+00   0.000000E+00   0.000000E+00   0.000000E+00   5.947512E+00   5.947512E+00   5.947512E+00   5.947512E+00   5.947512E+00   5.947512E+00   5.947512E+00   5.947512E+00   5.947512E+00   5.947512E+00   5.947512E+00   5.947512E+00
   5.947512E+00   5.947512E+00   5.947512E+00   5.947512E+00   0.000000E+00   0.000000E+00   0.000000E+00   0.000000E+00   5.947512E+00   5.947512E+00   5.947512E+00   5.947512E+00   5.947512E+00   5.947512E+00   5.947512E+00   5.947512E+00   5.947512E+00   5.947512E+00   5.947512E+00   5.947512E+00
   5.947512E+00   5.947512E+00   5.947512E+00   5.947512E+00   0.000000E+00   0.000000E+00   0.000000E+00   0.000000E+00   5.947512E+00   5.947512E+00   5.947512E+00   5.947512E+00   5.947512E+00   5.947512E+00   5.947512E+00   5.947512E+00   5.947512E+00   5.947512E+00   5.947512E+00   5.947512E+00
   5.947512E+00   5.947512E+00   5.947512E+00   5.947512E+00   0.000000E+00   0.000000E+00   0.000000E+00   0.000000E+00   5.947512E+00   5.947512E+00   5.947512E+00   5.947512E+00   5.947512E+00   5.947512E+00   5.947512E+00   5.947512E+00   5.947512E+00   5.947512E+00   5.947512E+00   5.947512E+00
   5.947512E+00   5.947512E+00   5.947512E+00   5.947512E+00   0.000000E+00   0.000000E+00   0.000000E+00   0.000000E+00   5.947512E+00   5.947512E+00   5.947512E+00   5.947512E+00   5.947512E+00   5.947512E+00   5.947512E+00   5.947512E+00   5.947512E+00   5.947512E+00   5.947512E+00   5.947512E+00
   5.947512E+00   5.947512E+00   5.947512E+00   5.947512E+00   0.000000E+00   0.000000E+00   0.000000E+00   0.000000E+00   5.947512E+00   5.947512E+00   5.947512E+00   5.947512E+00   5.947512E+00   5.947512E+00   5.947512E+00   5.947512E+00   5.947512E+00   5.947512E+00   5.947512E+00   5.947512E+00
   5.947512E+00   5.947512E+00   5.947512E+00   5.947512E+00   0.000000E+00   0.000000E+00   0.000000E+00   0.000000E+00   5.947512E+00   5.947512E+00   5.947512E+00   5.947512E+00   5.947512E+00   5.947512E+00   5.947512E+00   5.947512E+00   5.947512E+00   5.947512E+00   5.947512E+00   5.947512E+00
   5.947512E+00   5.947512E+00   5.947512E+00   5.947512E+00   0.000000E+00   0.000000E+00   0.000000E+00   0.000000E+00   5.947512E+00   5.947512E+00   5.947512E+00   5.947512E+00   5.947512E+00   5.947512E+00   5.947512E+00   5.947512E+00   5.947512E+00   5.947512E+00   5.947512E+00   5.947512E+00
   5.947512E+00   5.947512E+00   5.947512E+00   5.947512E+00   0.000000E+00   0.000000E+00   0.000000E+00   0.000000E+00   5.947512E+00   5.947512E+00   5.947512E+00   5.947512E+00   5.947512E+00   5.947512E+00   5.947512E+00   5.947512E+00   5.947512E+00   5.947512E+00   5.947512E+00   5.947512E+00
   5.947512E+00   5.947512E+00   5.947512E+00   5.947512E+00   0.000000E+00   0.000000E+00   5.947512E+00   5.947512E+00   5.947512E+00   5.947512E+00   5.947512E+00   5.947512E+00   5.947512E+00   5.947512E+00   5.947512E+00   5.947512E+00   5.947512E+00   5.947512E+00   5.947512E+00   5.947512E+00
   5.947512E+00   5.947512E+00   5.947512E+00   5.947512E+00   5.947512E+00   0.000000E+00   5.947512E+00   5.947512E+00   5.947512E+00   5.947512E+00   5.947512E+00   5.947512E+00   5.947512E+00   5.947512E+00   5.947512E+00   5.947512E+00   5.947512E+00   5.947512E+00   5.947512E+00   5.947512E+00
   5.947512E+00   5.947512E+00   5.947512E+00   5.947512E+00   5.947512E+00   5.947512E+00   5.947512E+00   5.947512E+00   5.947512E+00   5.947512E+00   5.947512E+00   5.947512E+00   5.947512E+00   5.947512E+00   5.947512E+00   5.947512E+00   5.947512E+00   5.947512E+00   5.947512E+00   5.947512E+00
   5.947512E+00   5.947512E+00   5.947512E+00   5.947512E+00   5.947512E+00   5.947512E+00   5.947512E+00   5.947512E+00   5.947512E+00   5.947512E+00   5.947512E+00   5.947512E+00   5.947512E+00   5.947512E+00   5.947512E+00   5.947512E+00   5.947512E+00   5.947512E+00   5.947512E+00   5.947512E+00
   5.947512E+00   5.947512E+00   5.947512E+00   5.947512E+00   5.947512E+00   5.947512E+00   5.947512E+00   5.947512E+00   5.947512E+00   5.947512E+00   5.947512E+00   5.947512E+00   5.947512E+00   5.947512E+00   5.947512E+00   5.947512E+00   5.947512E+00   5.947512E+00   5.947512E+00   5.947512E+00
   5.947512E+00   5.947512E+00   5.947512E+00   5.947512E+00   5.947512E+00   5.947512E+00   5.947512E+00   5.947512E+00   5.947512E+00   5.947512E+00   5.947512E+00   5.947512E+00   5.947512E+00   5.947512E+00   5.947512E+00   5.947512E+00   5.947512E+00   5.947512E+00   5.947512E+00   5.947512E+00
   5.947512E+00   5.947512E+00   5.947512E+00   5.947512E+00   5.947512E+00   5.947512E+00   5.947512E+00   5.947512E+00   5.947512E+00   5.947512E+00   5.947512E+00   5.947512E+00   5.947512E+00   5.947512E+00   5.947512E+00   5.947512E+00   5.947512E+00   5.947512E+00   5.947512E+00   5.947512E+00
   5.947512E+00   5.947512E+00   5.947512E+00   5.947512E+00   5.947512E+00   5.947512E+00   5.947512E+00   5.947512E+00   5.947512E+00   5.947512E+00   5.947512E+00   5.947512E+00   5.947512E+00   5.947512E+00   5.947512E+00   5.947512E+00   5.947512E+00   5.947512E+00   5.947512E+00   5.947512E+00
   5.947512E+00   5.947512E+00   5.947512E+00   5.947512E+00   5.947512E+00   5.947512E+00   5.947512E+00   5.947512E+00   5.947512E+00   5.947512E+00   5.947512E+00   5.947512E+00   5.947512E+00   5.947512E+00   5.947512E+00   5.947512E+00   5.947512E+00   5.947512E+00   5.947512E+00   5.947512E+00
   5.947512E+00   5.947512E+00   5.947512E+00   5.947512E+00   5.947512E+00   5.947512E+00   5.947512E+00   5.947512E+00   5.947512E+00   5.947512E+00   5.947512E+00   5.947512E+00   5.947512E+00   5.947512E+00   5.947512E+00   5.947512E+00   5.947512E+00   5.947512E+00   5.947512E+00   5.947512E+00
   5.947512E+00   5.947512E+00   5.947512E+00   5.947512E+00   5.947512E+00   5.947512E+00   5.947512E+00   5.947512E+00   5.947512E+00   5.947512E+00   5.947512E+00   5.947512E+00   5.947512E+00   5.947512E+00   5.947512E+00   5.947512E+00   5.947512E+00   5.947512E+00   5.947512E+00   5.947512E+00
   0.000000E+00   5.947512E+00   5.947512E+00   5.947512E+00   5.947512E+00   5.947512E+00   5.947512E+00   5.947512E+00   5.947512E+00   5.947512E+00   5.947512E+00   5.947512E+00   5.947512E+00   5.947512E+00   5.947512E+00   5.947512E+00   5.947512E+00   5.947512E+00   5.947512E+00   5.947512E+00
   0.000000E+00   0.000000E+00   5.947512E+00   5.947512E+00   5.947512E+00   5.947512E+00   5.947512E+00   5.947512E+00   5.947512E+00   5.947512E+00   5.947512E+00   5.947512E+00   5.947512E+00   5.947512E+00   5.947512E+00   5.947512E+00   5.947512E+00   5.947512E+00   5.947512E+00   5.947512E+00
   0.000000E+00   0.000000E+00   0.000000E+00   5.947512E+00   5.947512E+00   5.947512E+00   5.947512E+00   5.947512E+00   5.947512E+00   5.947512E+00   5.947512E+00   5.947512E+00   5.947512E+00   5.947512E+00   5.947512E+00   5.947512E+00   5.947512E+00   5.947512E+00   5.947512E+00   5.947512E+00
   0.000000E+00   0.000000E+00   0.000000E+00   0.000000E+00   5.947512E+00   5.947512E+00   5.947512E+00   5.947512E+00   5.947512E+00   5.947512E+00   5.947512E+00   5.947512E+00   5.947512E+00   5.947512E+00   5.947512E+00   5.947512E+00   5.947512E+00   5.947512E+00   5.947512E+00   0.000000E+00
   0.000000E+00   0.000000E+00   0.000000E+00   0.000000E+00   5.947512E+00   5.947512E+00   5.947512E+00   5.947512E+00   5.947512E+00   5.947512E+00   5.947512E+00   5.947512E+00   5.947512E+00   5.947512E+00   5.947512E+00   5.947512E+00   5.947512E+00   5.947512E+00   5.947512E+00   0.000000E+00
   0.000000E+00   0.000000E+00   0.000000E+00   0.000000E+00   0.000000E+00   5.947512E+00   5.947512E+00   5.947512E+00   5.947512E+00   5.947512E+00   5.947512E+00   5.947512E+00   5.947512E+00   5.947512E+00   5.947512E+00   5.947512E+00   5.947512E+00   5.947512E+00   0.000000E+00   0.000000E+00
   0.000000E+00   0.000000E+00   0.000000E+00   0.000000E+00   0.000000E+00   5.947512E+00   5.947512E+00   5.947512E+00   5.947512E+00   5.947512E+00   5.947512E+00   5.947512E+00   5.947512E+00   5.947512E+00   5.947512E+00   5.947512E+00   5.947512E+00   0.000000E+00   0.000000E+00   0.000000E+00
   0.000000E+00   0.000000E+00   0.000000E+00   0.000000E+00   0.000000E+00   5.947512E+00   5.947512E+00   5.947512E+00   5.947512E+00   5.947512E+00   5.947512E+00   5.947512E+00   5.947512E+00   6.006987E+00   5.947512E+00   0.000000E+00   0.000000E+00   0.000000E+00   0.000000E+00   0.000000E+00
CONSTANT    1.000000E+00                           #vk                            
CONSTANT    1.000000E-04                           #ss                            
INTERNAL               1     (FREE) -1 #hk                            
   5.947512E+00   5.947512E+00   5.947512E+00   5.947512E+00   5.947512E+00   5.947512E+00   5.947512E+00   5.947512E+00   5.947512E+00   5.947512E+00   5.947512E+00   5.947512E+00   5.947512E+00   5.947512E+00   5.947512E+00   5.947512E+00   5.947512E+00   5.947512E+00   5.947512E+00   5.947512E+00
   5.947512E+00   5.947512E+00   5.947512E+00   5.947512E+00   5.947512E+00   5.947512E+00   5.947512E+00   5.947512E+00   5.947512E+00   5.947512E+00   5.947512E+00   5.947512E+00   5.947512E+00   5.947512E+00   5.947512E+00   5.947512E+00   5.947512E+00   5.947512E+00   5.947512E+00   5.947512E+00
   5.947512E+00   5.947512E+00   5.947512E+00   5.947512E+00   5.947512E+00   5.947512E+00   5.947512E+00   5.947512E+00   5.947512E+00   5.947512E+00   5.947512E+00   5.947512E+00   5.947512E+00   5.947512E+00   5.947512E+00   5.947512E+00   5.947512E+00   5.947512E+00   5.947512E+00   5.947512E+00
   5.947512E+00   5.947512E+00   5.947512E+00   5.947512E+00   5.947512E+00   5.947512E+00   5.947512E+00   5.947512E+00   5.947512E+00   5.947512E+00   5.947512E+00   5.947512E+00   5.947512E+00   5.947512E+00   5.947512E+00   5.947512E+00   5.947512E+00   5.947512E+00   5.947512E+00   5.947512E+00
   5.947512E+00   5.947512E+00   5.947512E+00   5.947512E+00   5.947512E+00   5.947512E+00   5.947512E+00   5.947512E+00   5.947512E+00   5.947512E+00   5.947512E+00   5.947512E+00   5.947512E+00   5.947512E+00   5.947512E+00   5.947512E+00   5.947512E+00   5.947512E+00   5.947512E+00   5.947512E+00
   5.947512E+00   5.947512E+00   5.947512E+00   5.947512E+00   5.947512E+00   5.947512E+00   5.947512E+00   5.947512E+00   5.947512E+00   5.947512E+00   5.947512E+00   5.947512E+00   5.947512E+00   5.947512E+00   5.947512E+00   5.947512E+00   5.947512E+00   5.947512E+00   5.947512E+00   5.947512E+00
   5.947512E+00   5.947512E+00   5.947512E+00   5.947512E+00   5.947512E+00   5.947512E+00   5.947512E+00   5.947512E+00   5.947512E+00   5.947512E+00   5.947512E+00   5.947512E+00   5.947512E+00   5.947512E+00   5.947512E+00   5.947512E+00   5.947512E+00   5.947512E+00   5.947512E+00   5.947512E+00
   5.947512E+00   5.947512E+00   5.947512E+00   5.947512E+00   5.947512E+00   5.947512E+00   5.947512E+00   5.947512E+00   5.947512E+00   5.947512E+00   5.947512E+00   5.947512E+00   5.947512E+00   5.947512E+00   5.947512E+00   5.947512E+00   5.947512E+00   5.947512E+00   5.947512E+00   5.947512E+00
   5.947512E+00   5.947512E+00   5.947512E+00   5.947512E+00   0.000000E+00   0.000000E+00   0.000000E+00   5.947512E+00   5.947512E+00   5.947512E+00   5.947512E+00   5.947512E+00   5.947512E+00   5.947512E+00   5.947512E+00   5.947512E+00   5.947512E+00   5.947512E+00   5.947512E+00   5.947512E+00
   5.947512E+00   5.947512E+00   5.947512E+00   5.947512E+00   0.000000E+00   0.000000E+00   0.000000E+00   0.000000E+00   5.947512E+00   5.947512E+00   5.947512E+00   5.947512E+00   5.947512E+00   5.947512E+00   5.947512E+00   5.947512E+00   5.947512E+00   5.947512E+00   5.947512E+00   5.947512E+00
   5.947512E+00   5.947512E+00   5.947512E+00   5.947512E+00   0.000000E+00   0.000000E+00   0.000000E+00   0.000000E+00   5.947512E+00   5.947512E+00   5.947512E+00   5.947512E+00   5.947512E+00   5.947512E+00   5.947512E+00   5.947512E+00   5.947512E+00   5.947512E+00   5.947512E+00   5.947512E+00
   5.947512E+00   5.947512E+00   5.947512E+00   5.947512E+00   0.000000E+00   0.000000E+00   0.000000E+00   0.000000E+00   5.947512E+00   5.947512E+00   5.947512E+00   5.947512E+00   5.947512E+00   5.947512E+00   5.947512E+00   5.947512E+00   5.947512E+00   5.947512E+00   5.947512E+00   5.947512E+00
   5.947512E+00   5.947512E+00   5.947512E+00   5.947512E+00   0.000000E+00   0.000000E+00   0.000000E+00   0.000000E+00   5.947512E+00   5.947512E+00   5.947512E+00   5.947512E+00   5.947512E+00   5.947512E+00   5.947512E+00   5.947512E+00   5.947512E+00   5.947512E+00   5.947512E+00   5.947512E+00
   5.947512E+00   5.947512E+00   5.947512E+00   5.947512E+00   0.000000E+00   0.000000E+00   0.000000E+00   0.000000E+00   5.947512E+00   5.947512E+00   5.947512E+00   5.947512E+00   5.947512E+00   5.947512E+00   5.947512E+00   5.947512E+00   5.947512E+00   5.947512E+00   5.947512E+00   5.947512E+00
   5.947512E+00   5.947512E+00   5.947512E+00   5.947512E+00   0.000000E+00   0.000000E+00   0.000000E+00   0.000000E+00   5.947512E+00   5.947512E+00   5.947512E+00   5.947512E+00   5.947512E+00   5.947512E+00   5.947512E+00   5.947512E+00   5.947512E+00   5.947512E+00   5.947512E+00   5.947512E+00
   5.947512E+00   5.947512E+00   5.947512E+00   5.947512E+00   0.000000E+00   0.000000E+00   0.000000E+00   0.000000E+00   5.947512E+00   5.947512E+00   5.947512E+00   5.947512E+00   5.947512E+00   5.947512E+00   5.947512E+00   5.947512E+00   5.947512E+00   5.947512E+00   5.947512E+00   5.947512E+00