# RCH package for MODFLOW-NWT generated by Flopy 3.3.6
         3        50
         1        -1 # Stress period 1
INTERNAL               1     (FREE) -1 #rech_1                        
   1.382400E-04   1.382400E-04   1.382400E-04   1.382400E-04   1.382400E-04   1.382400E-04   1.382400E-04   1.382400E-04   1.382400E-04   1.382400E-04   1.382400E-04   1.382400E-04   1.382400E-04   1.382400E-04   1.382400E-04   1.382400E-04   1.382400E-04   1.382400E-04   1.382400E-04   1.382400E-04
   1.382400E-04   1.382400E-04   1.382400E-04   1.382400E-04   1.382400E-04   1.382400E-04   1.382400E-04   1.382400E-04   1.382400E-04   1.382400E-04   1.382400E-04   1.382400E-04   1.382400E-04   1.382400E-04   1.382400E-04   1.382400E-04   1.382400E-04   1.382400E-04   1.382400E-04   1.382400E-04
   1.382400E-04   1.382400E-04   1.382400E-04   1.382400E-04   1.382400E-04   1.382400E-04   1.382400E-04   1.382400E-04   1.382400E-04   1.382400E-04   1.382400E-04   1.382400E-04   1.382400E-04   1.382400E-04   1.382400E-04   1.382400E-04   1.382400E-04   1.382400E-04   1.382400E-04   1.382400E-04
   1.382400E-04   1.382400E-04   1.382400E-04   1.382400E-04   1.382400E-04   1.382400E-04   1.382400E-04   1.382400E-04   1.382400E-04   1.382400E-04   1.382400E-04   1.382400E-04   1.382400E-04   1.382400E-04   1.382400E-04   1.382400E-04   1.382400E-04   1.382400E-04   1.382400E-04   1.382400E-04
   1.382400E-04   1.382400E-04   1.382400E-04   1.382400E-04   1.382400E-04   1.382400E-04   1.382400E-04   1.382400E-04   1.382400E-04   1.382400E-04   1.382400E-04   1.382400E-04   1.382400E-04   1.382400E-04   1.382400E-04   1.382400E-04   1.382400E-04   1.382400E-04   1.382400E-04   1.382400E-04
   1.382400E-04   1.382400E-04   1.382400E-04   1.382400E-04   1.382400E-04   1.382400E-04   1.382400E-04   1.382400E-04   1.382400E-04   1.382400E-04   1.382400E-04   1.382400E-04   1.382400E-04   1.382400E-04   1.382400E-04   1.382400E-04   1.382400E-04   1.382400E-04   1.382400E-04   1.382400E-04
   1.382400E-04   1.382400E-04   1.382400E-04   1.382400E-04   1.382400E-04   1.382400E-04   1.382400E-04   1.382400E-04   1.382400E-04   1.382400E-04   1.382400E-04   1.382400E-04   1.382400E-04   1.382400E-04   1.382400E-04   1.382400E-04   1.382400E-04   1.382400E-04   1.382400E-04   1.382400E-04
   1.382400E-04   1.382400E-04   1.382400E-04   1.382400E-04   1.382400E-04   1.382400E-04   1.382400E-04   1.382400E-04   1.382400E-04   1.382400E-04   1.382400E-04   1.382400E-04   1.382400E-04   1.382400E-04   1.382400E-04   1.382400E-04   1.382400E-04   1.382400E-04   1.382400E-04   1.382400E-04
   1.382400E-04   1.382400E-04   1.382400E-04   1.382400E-04   1.382400E-04   1.382400E-04   1.382400E-04   1.382400E-04   1.382400E-04   1.382400E-04   1.382400E-04   1.382400E-04   1.382400E-04   1.382400E-04   1.382400E-04   1.382400E-04   1.382400E-04   1.382400E-04   1.382400E-04   1.382400E-04
   1.382400E-04   1.382400E-04   1.382400E-04   1.382400E-04   1.382400E-04   1.382400E-04   1.382400E-04   1.382400E-04   1.382400E-04   1.382400E-04   1.382400E-04   1.382400E-04   1.382400E-04   1.382400E-04   1.382400E-04   1.382400E-04   1.382400E-04   1.382400E-04   1.382400E-04   1.382400E-04
   1.382400E-04   1.382400E-04   1.382400E-04   1.382400E-04   1.382400E-04   1.382400E-04   1.382400E-04   1.382400E-04   1.382400E-04   1.382400E-04   1.382400E-04   1.382400E-04   1.382400E-04   1.382400E-04   1.382400E-04   1.382400E-04   1.382400E-04   1.382400E-04   1.382400E-04   1.382400E-04
   1.382400E-04   1.382400E-04   1.382400E-04   1.382400E-04   1.382400E-04   1.382400E-04   1.382400E-04   1.382400E-04   1.382400E-04   1.382400E-04   1.382400E-04   1.382400E-04   1.382400E-04   1.382400E-04   1.382400E-04   1.382400E-04   1.382400E-04   1.382400E-04   1.382400E-04   1.382400E-04
   1.382400E-04   1.382400E-04   1.382400E-04   1.382400E-04   1.382400E-04   1.382400E-04   1.382400E-04   1.382400E-04   1.382400E-04   1.382400E-04   1.382400E-04   1.382400E-04   1.382400E-04   1.382400E-04   1.382400E-04   1.382400E-04   1.382400E-04   1.382400E-04   1.382400E-04   1.382400E-04
   1.382400E-04   1.382400E-04   1.382400E-04   1.382400E-04   1.382400E-04   1.382400E-04   1.382400E-04   1.382400E-04   1.382400E-04   1.382400E-04   1.382400E-04   1.382400E-04   1.382400E-04   1.382400E-04   1.382400E-04   1.382400E-04   1.382400E-04   1.382400E-04   1.382400E-04   1.382400E-04
   1.382400E-04   1.382400E-04   1.382400E-04   1.382400E-04   1.382400E-04   1.382400E-04   1.382400E-04   1.382400E-04   1.382400E-04   1.382400E-04   1.382400E-04   1.382400E-04   1.382400E-04   1.382400E-04   1.382400E-04   1.382400E-04   1.382400E-04   1.382400E-04   1.382400E-04   1.382400E-04
   1.382400E-04   1.382400E-04   1.382400E-04   1.382400E-04   1.382400E-04   1.382400E-04   1.382400E-04   1.382400E-04   1.382400E-04   1.382400E-04   1.382400E-04   1.382400E-04   1.382400E-04   1.382400E-04   1.382400E-04   1.382400E-04   1.382400E-04   1.382400E-04   1.382400E-04   1.382400E-04
   1.382400E-04   1.382400E-04   1.382400E-04   1.382400E-04   1.382400E-04   1.382400E-04   1.382400E-04   1.382400E-04   1.382400E-04   1.382400E-04   1.382400E-04   1.382400E-04   1.382400E-04   1.382400E-04   1.382400E-04   1.382400E-04   1.382400E-04   1.382400E-04   1.382400E-04   1.382400E-04
   1.382400E-04   1.382400E-04   1.382400E-04   1.382400E-04   1.382400E-04   1.382400E-04   1.382400E-04   1.382400E-04   1.382400E-04   1.382400E-04   1.382400E-04   1.382400E-04   1.382400E-04   1.382400E-04   1.382400E-04   1.382400E-04   1.382400E-04   1.382400E-04   1.382400E-04   1.382400E-04
   1.382400E-04   1.382400E-04   1.382400E-04   1.382400E-04   1.382400E-04   1.382400E-04   1.382400E-04   1.382400E-04   1.382400E-04   1.382400E-04   1.382400E-04   1.382400E-04   1.382400E-04   1.382400E-04   1.382400E-04   1.382400E-04   1.382400E-04   1.382400E-04   1.382400E-04   1.382400E-04
   1.382400E-04   1.382400E-04   1.382400E-04   1.382400E-04   1.382400E-04   1.382400E-04   1.382400E-04   1.382400E-04   1.382400E-04   1.382400E-04   1.382400E-04   1.382400E-04   1.382400E-04   1.382400E-04   1.382400E-04   1.382400E-04   1.382400E-04   1.382400E-04   1.382400E-04   1.382400E-04
   1.382400E-04   1.382400E-04   1.382400E-04   1.382400E-04   1.382400E-04   1.382400E-04   1.382400E-04   1.382400E-04   1.382400E-04   1.382400E-04   1.382400E-04   1.382400E-04   1.382400E-04   1.382400E-04   1.382400E-04   1.382400E-04   1.382400E-04   1.382400E-04   1.382400E-04   1.382400E-04
   1.382400E-04   1.382400E-04   1.382400E-04   1.382400E-04   1.382400E-04   1.382400E-04   1.382400E-04   1.382400E-04   1.382400E-04   1.382400E-04   1.382400E-04   1.382400E-04   1.382400E-04   1.382400E-04   1.382400E-04   1.382400E-04   1.382400E-04   1.382400E-04   1.382400E-04   1.382400E-04
   1.382400E-04   1.382400E-04   1.382400E-04   1.382400E-04   1.382400E-04   1.382400E-04   1.382400E-04   1.382400E-04   1.382400E-04   1.382400E-04   1.382400E-04   1.382400E-04   1.382400E-04   1.382400E-04   1.382400E-04   1.382400E-04   1.382400E-04   1.382400E-04   1.382400E-04   1.382400E-04
   1.382400E-04   1.382400E-04   1.382400E-04   1.382400E-04   1.382400E-04   1.382400E-04   1.382400E-04   1.382400E-04   1.382400E-04   1.382400E-04   1.382400E-04   1.382400E-04   1.382400E-04   1.382400E-04   1.382400E-04   1.382400E-04   1.382400E-04   1.382400E-04   1.382400E-04   1.382400E-04
   1.382400E-04   1.382400E-04   1.382400E-04   1.382400E-04   1.382400E-04   1.382400E-04   1.382400E-04   1.382400E-04   1.382400E-04   1.382400E-04   1.382400E-04   1.382400E-04   1.382400E-04   1.382400E-04   1.382400E-04   1.382400E-04   1.382400E-04   1.382400E-04   1.382400E-04   1.382400E-04
   1.382400E-04   1.382400E-04   1.382400E-04   1.382400E-04   1.382400E-04   1.382400E-04   1.382400E-04   1.382400E-04   1.382400E-04   1.382400E-04   1.382400E-04   1.382400E-04   1.382400E-04   1.382400E-04   1.382400E-04   1.382400E-04   1.382400E-04   1.382400E-04   1.382400E-04   1.382400E-04
   1.382400E-04   1.382400E-04   1.382400E-04   1.382400E-04   1.382400E-04   1.382400E-04   1.382400E-04   1.382400E-04   1.382400E-04   1.382400E-04   1.382400E-04   1.382400E-04   1.382400E-04   1.382400E-04   1.382400E-04   1.382400E-04   1.382400E-04   1.382400E-04   1.382400E-04   1.382400E-04
   1.382400E-04   1.382400E-04   1.382400E-04   1.382400E-04   1.382400E-04   1.382400E-04   1.382400E-04   1.382400E-04   1.382400E-04   1.382400E-04   1.382400E-04   1.382400E-04   1.382400E-04   1.382400E-04   1.382400E-04   1.382400E-04   1.382400E-04   1.382400E-04   1.382400E-04   1.382400E-04
   1.382400E-04   1.382400E-04   1.382400E-04   1.382400E-04   1.382400E-04   1.382400E-04   1.382400E-04   1.382400E-04   1.382400E-04   1.382400E-04   1.382400E-04   1.382400E-04   1.382400E-04   1.382400E-04   1.382400E-04   1.382400E-04   1.382400E-04   1.382400E-04   1.382400E-04   1.382400E-04
   1.382400E-04   1.382400E-04   1.382400E-04   1.382400E-04   1.382400E-04   1.382400E-04   1.382400E-04   1.382400E-04   1.382400E-04   1.382400E-04   1.382400E-04   1.382400E-04   1.382400E-04   1.382400E-04   1.382400E-04   1.382400E-04   1.382400E-04   1.382400E-04   1.382400E-04   1.382400E-04
   1.382400E-04   1.382400E-04   1.382400E-04   1.382400E-04   1.382400E-04   1.382400E-04   1.382400E-04   1.382400E-04   1.382400E-04   1.382400E-04   1.382400E-04   1.382400E-04   1.382400E-04   1.382400E-04   1.382400E-04   1.382400E-04   1.382400E-04   1.382400E-04   1.382400E-04   1.382400E-04
   1.382400E-04   1.382400E-04   1.382400E-04   1.382400E-04   1.382400E-04   1.382400E-04   1.382400E-04   1.382400E-04   1.382400E-04   1.382400E-04   1.382400E-04   1.382400E-04   1.382400E-04   1.382400E-04   1.382400E-04   1.382400E-04   1.382400E-04   1.382400E-04   1.382400E-04   1.382400E-04
   1.382400E-04   1.382400E-04   1.382400E-04   1.382400E-04   1.382400E-04   1.382400E-04   1.382400E-04   1.382400E-04   1.382400E-04   1.382400E-04   1.382400E-04   1.382400E-04   1.382400E-04   1.382400E-04   1.382400E-04   1.382400E-04   1.382400E-04   1.382400E-04   1.382400E-04   1.382400E-04
   1.382400E-04   1.382400E-04   1.382400E-04   1.382400E-04   1.382400E-04   1.382400E-04   1.382400E-04   1.382400E-04   1.382400E-04   1.382400E-04   1.382400E-04   1.382400E-04   1.382400E-04   1.382400E-04   1.382400E-04   1.382400E-04   1.382400E-04   1.382400E-04   1.382400E-04   1.382400E-04
   1.382400E-04   1.382400E-04   1.382400E-04   1.382400E-04   1.382400E-04   1.382400E-04   1.382400E-04   1.382400E-04   1.382400E-04   1.382400E-04   1.382400E-04   1.382400E-04   1.382400E-04   1.382400E-04   1.382400E-04   1.382400E-04   1.382400E-04   1.382400E-04   1.382400E-04   1.382400E-04
   1.382400E-04   1.382400E-04   1.382400E-04   1.382400E-04   1.382400E-04   1.382400E-04   1.382400E-04   1.382400E-04   1.382400E-04   1.382400E-04   1.382400E-04   1.382400E-04   1.382400E-04   1.382400E-04   1.382400E-04   1.382400E-04   1.382400E-04   1.382400E-04   1.382400E-04   1.382400E-04
   1.382400E-04   1.382400E-04   1.382400E-04   1.382400E-04   1.382400E-04   1.382400E-04   1.382400E-04   1.382400E-04   1.382400E-04   1.382400E-04   1.382400E-04   1.382400E-04   1.382400E-04   1.382400E-04   1.382400E-04   1.382400E-04   1.382400E-04   1.382400E-04   1.382400E-04   1.382400E-04
   1.382400E-04   1.382400E-04   1.382400E-04   1.382400E-04   1.382400E-04   1.382400E-04   1.382400E-04   1.382400E-04   1.382400E-04   1.382400E-04   1.382400E-04   1.382400E-04   1.382400E-04   1.382400E-04   1.382400E-04   1.382400E-04   1.382400E-04   1.382400E-04   1.382400E-04   1.382400E-04
   1.382400E-04   1.382400E-04   1.382400E-04   1.382400E-04   1.382400E-04   1.382400E-04   1.382400E-04   1.382400E-04   1.382400E-04   1.382400E-04   1.382400E-04   1.382400E-04   1.382400E-04   1.382400E-04   1.382400E-04   1.382400E-04   1.382400E-04   1.382400E-04   1.382400E-04   1.382400E-04
   1.382400E-04   1.382400E-04   1.382400E-04   1.382400E-04   1.382400E-04   1.382400E-04   1.382400E-04   1.382400E-04   1.382400E-04   1.382400E-04   1.382400E-04   1.382400E-04   1.382400E-04   1.382400E-04   1.382400E-04   1.382400E-04   1.382400E-04   1.382400E-04   1.382400E-04   1.382400E-04
         1        -1 # Stress period 2
INTERNAL               1     (FREE) -1 #rech_2                        
   6.912000E-05   6.912000E-05   6.912000E-05   6.912000E-05   6.912000E-05   6.912000E-05   6.912000E-05   6.912000E-05   6.912000E-05   6.912000E-05   6.912000E-05   6.912000E-05   6.912000E-05   6.912000E-05   6.912000E-05   6.912000E-05   6.912000E-05   6.912000E-05   6.912000E-05   6.912000E-05
   6.912000E-05   6.912000E-05   6.912000E-05   6.912000E-05   6.912000E-05   6.912000E-05   6.912000E-05   6.912000E-05   6.912000E-05   6.912000E-05   6.912000E-05   6.912000E-05   6.912000E-05   6.912000E-05   6.912000E-05   6.912000E-05   6.912000E-05   6.912000E-05   6.912000E-05   6.912000E-05
   6.912000E-05   6.912000E-05   6.912000E-05   6.912000E-05   6.912000E-05   6.912000E-05   6.912000E-05   6.912000E-05   6.912000E-05   6.912000E-05   6.912000E-05   6.912000E-05   6.912000E-05   6.912000E-05   6.912000E-05   6.912000E-05   6.912000E-05   6.912000E-05   6.912000E-05   6.912000E-05
   6.912000E-05   6.912000E-05   6.912000E-05   6.912000E-05   6.912000E-05   6.912000E-05   6.912000E-05   6.912000E-05   6.912000E-05   6.912000E-05   6.912000E-05   6.912000E-05   6.912000E-05   6.912000E-05   6.912000E-05   6.912000E-05   6.912000E-05   6.912000E-05   6.912000E-05   6.912000E-05
   6.912000E-05   6.912000E-05   6.912000E-05   6.912000E-05   6.912000E-05   6.912000E-05   6.912000E-05   6.912000E-05   6.912000E-05   6.912000E-05   6.912000E-05   6.912000E-05   6.912000E-05   6.912000E-05   6.912000E-05   6.912000E-05   6.912000E-05   6.912000E-05   6.912000E-05   6.912000E-05
   6.912000E-05   6.912000E-05   6.912000E-05   6.912000E-05   6.912000E-05   6.912000E-05   6.912000E-05   6.912000E-05   6.912000E-05   6.912000E-05   6.912000E-05   6.912000E-05   6.912000E-05   6.912000E-05   6.912000E-05   6.912000E-05   6.912000E-05   6.912000E-05   6.912000E-05   6.912000E-05
   6.912000E-05   6.912000E-05   6.912000E-05   6.912000E-05   6.912000E-05   6.912000E-05   6.912000E-05   6.912000E-05   6.912000E-05   6.912000E-05   6.912000E-05   6.912000E-05   6.912000E-05   6.912000E-05   6.912000E-05   6.912000E-05   6.912000E-05   6.912000E-05   6.912000E-05   6.912000E-05
   6.912000E-05   6.912000E-05   6.912000E-05   6.912000E-05   6.912000E-05   6.912000E-05   6.912000E-05   6.912000E-05   6.912000E-05   6.912000E-05   6.912000E-05   6.912000E-05   6.912000E-05   6.912000E-05   6.912000E-05   6.912000E-05   6.912000E-05   6.912000E-05   6.912000E-05   6.912000E-05
   6.912000E-05   6.912000E-05   6.912000E-05   6.912000E-05   6.912000E-05   6.912000E-05   6.912000E-05   6.912000E-05   6.912000E-05   6.912000E-05   6.912000E-05   6.912000E-05   6.912000E-05   6.912000E-05   6.912000E-05   6.912000E-05   6.912000E-05   6.912000E-05   6.912000E-05   6.912000E-05
   6.912000E-05   6.912000E-05   6.912000E-05   6.912000E-05   6.912000E-05   6.912000E-05   6.912000E-05   6.912000E-05   6.912000E-05   6.912000E-05   6.912000E-05   6.912000E-05   6.912000E-05   6.912000E-05   6.912000E-05   6.912000E-05   6.912000E-05   6.912000E-05   6.912000E-05   6.912000E-05
   6.912000E-05   6.912000E-05   6.912000E-05   6.912000E-05   6.912000E-05   6.912000E-05   6.912000E-05   6.912000E-05   6.912000E-05   6.912000E-05   6.912000E-05   6.912000E-05   6.912000E-05   6.912000E-05   6.912000E-05   6.912000E-05   6.912000E-05   6.912000E-05   6.912000E-05   6.912000E-05
   6.912000E-05   6.912000E-05   6.912000E-05   6.912000E-05   6.912000E-05   6.912000E-05   6.912000E-05   6.912000E-05   6.912000E-05   6.912000E-05   6.912000E-05   6.912000E-05   6.912000E-05   6.912000E-05   6.912000E-05   6.912000E-05   6.912000E-05   6.912000E-05   6.912000E-05   6.912000E-05
   6.912000E-05   6.912000E-05   6.912000E-05   6.912000E-05   6.912000E-05   6.912000E-05   6.912000E-05   6.912000E-05   6.912000E-05   6.912000E-05   6.912000E-05   6.912000E-05   6.912000E-05   6.912000E-05   6.912000E-05   6.912000E-05   6.912000E-05   6.912000E-05   6.912000E-05   6.912000E-05
   6.912000E-05   6.912000E-05   6.912000E-05   6.912000E-05   6.912000E-05   6.912000E-05   6.912000E-05   6.912000E-05   6.912000E-05   6.912000E-05   6.912000E-05   6.912000E-05   6.912000E-05   6.912000E-05   6.912000E-05   6.912000E-05   6.912000E-05   6.912000E-05   6.912000E-05   6.912000E-05
   6.912000E-05   6.912000E-05   6.912000E-05   6.912000E-05   6.912000E-05   6.912000E-05   6.912000E-05   6.912000E-05   6.912000E-05   6.912000E-05   6.912000E-05   6.912000E-05   6.912000E-05   6.912000E-05   6.912000E-05   6.912000E-05   6.912000E-05   6.912000E-05   6.912000E-05   6.912000E-05
   6.912000E-05   6.912000E-05   6.912000E-05   6.912000E-05   6.912000E-05   6.912000E-05   6.912000E-05   6.912000E-05   6.912000E-05   6.912000E-05   6.912000E-05   6.912000E-05   6.912000E-05   6.912000E-05   6.912000E-05   6.912000E-05   6.912000E-05   6.912000E-05   6.912000E-05   6.912000E-05
   6.912000E-05   6.912000E-05   6.912000E-05   6.912000E-05   6.912000E-05   6.912000E-05   6.912000E-05   6.912000E-05   6.912000E-05   6.912000E-05   6.912000E-05   6.912000E-05   6.912000E-05   6.912000E-05   6.912000E-05   6.912000E-05   6.912000E-05   6.912000E-05   6.912000E-05   6.912000E-05
   6.912000E-05   6.912000E-05   6.912000E-05   6.912000E-05   6.912000E-05   6.912000E-05   6.912000E-05   6.912000E-05   6.912000E-05   6.912000E-05   6.912000E-05   6.912000E-05   6.912000E-05   6.912000E-05   6.912000E-05   6.912000E-05   6.912000E-05   6.912000E-05   6.912000E-05   6.912000E-05
   6.912000E-05   6.912000E-05   6.912000E-05   6.912000E-05   6.912000E-05   6.912000E-05   6.912000E-05   6.912000E-05   6.912000E-05   6.912000E-05   6.912000E-05   6.912000E-05   6.912000E-05   6.912000E-05   6.912000E-05   6.912000E-05   6.912000E-05   6.912000E-05   6.912000E-05   6.912000E-05
   6.912000E-05   6.912000E-05   6.912000E-05   6.912000E-05   6.912000E-05   6.912000E-05   6.912000E-05   6.912000E-05   6.912000E-05   6.912000E-05   6.912000E-05   6.912000E-05   6.912000E-05   6.912000E-05   6.912000E-05   6.912000E-05   6.912000E-05   6.912000E-05   6.912000E-05   6.912000E-05
   6.912000E-05   6.912000E-05   6.912000E-05   6.912000E-05   6.912000E-05   6.912000E-05   6.912000E-05   6.912000E-05   6.912000E-05   6.912000E-05   6.912000E-05   6.912000E-05   6.912000E-05   6.912000E-05   6.912000E-05   6.912000E-05   6.912000E-05   6.912000E-05   6.912000E-05   6.912000E-05
   6.912000E-05   6.912000E-05   6.912000E-05   6.912000E-05   6.912000E-05   6.912000E-05   6.912000E-05   6.912000E-05   6.912000E-05   6.912000E-05   6.912000E-05   6.912000E-05   6.912000E-05   6.912000E-05   6.912000E-05   6.912000E-05   6.912000E-05   6.912000E-05   6.912000E-05   6.912000E-05
   6.912000E-05   6.912000E-05   6.912000E-05   6.912000E-05   6.912000E-05   6.912000E-05   6.912000E-05   6.912000E-05   6.912000E-05   6.912000E-05   6.912000E-05   6.912000E-05   6.912000E-05   6.912000E-05   6.912000E-05   6.912000E-05   6.912000E-05   6.912000E-05   6.912000E-05   6.912000E-05
   6.912000E-05   6.912000E-05   6.912000E-05   6.912000E-05   6.912000E-05   6.912000E-05   6.912000E-05   6.912000E-05   6.912000E-05   6.912000E-05   6.912000E-05   6.912000E-05   6.912000E-05   6.912000E-05   6.912000E-05   6.912000E-05   6.912000E-05   6.912000E-05   6.912000E-05   6.912000E-05
   6.912000E-05   6.912000E-05   6.912000E-05   6.912000E-05   6.912000E-05   6.912000E-05   6.912000E-05   6.912000E-05   6.912000E-05   6.912000E-05   6.912000E-05   6.912000E-05   6.912000E-05   6.912000E-05   6.912000E-05   6.912000E-05   6.912000E-05   6.912000E-05   6.912000E-05   6.912000E-05
   6.912000E-05   6.912000E-05   6.912000E-05   6.912000E-05   6.912000E-05   6.912000E-05   6.912000E-05   6.912000E-05   6.912000E-05   6.912000E-05   6.912000E-05   6.912000E-05   6.912000E-05   6.912000E-05   6.912000E-05   6.912000E-05   6.912000E-05   6.912000E-05   6.912000E-05   6.912000E-05
   6.912000E-05   6.912000E-05   6.912000E-05   6.912000E-05   6.912000E-05   6.912000E-05   6.912000E-05   6.912000E-05   6.912000E-05   6.912000E-05   6.912000E-05   6.912000E-05   6.912000E-05   6.912000E-05   6.912000E-05   6.912000E-05   6.912000E-05   6.912000E-05   6.912000E-05   6.912000E-05
   6.912000E-05   6.912000E-05   6.912000E-05   6.912000E-05   6.912000E-05   6.912000E-05   6.912000E-05   6.912000E-05   6.912000E-05   6.912000E-05   6.912000E-05   6.912000E-05   6.912000E-05   6.912000E-05   6.912000E-05   6.912000E-05   6.912000E-05   6.912000E-05   6.912000E-05   6.912000E-05
   6.912000E-05   6.912000E-05   6.912000E-05   6.912000E-05   6.912000E-05   6.912000E-05   6.912000E-05   6.912000E-05   6.912000E-05   6.912000E-05   6.912000E-05   6.912000E-05   6.912000E-05   6.912000E-05   6.912000E-05   6.912000E-05   6.912000E-05   6.912000E-05   6.912000E-05   6.912000E-05
   6.912000E-05   6.912000E-05   6.912000E-05   6.912000E-05   6.912000E-05   6.912000E-05   6.912000E-05   6.912000E-05   6.912000E-05   6.912000E-05   6.912000E-05   6.912000E-05   6.912000E-05   6.912000E-05   6.912000E-05   6.912000E-05   6.912000E-05   6.912000E-05   6.912000E-05   6.912000E-05
   6.912000E-05   6.912000E-05   6.912000E-05   6.912000E-05   6.912000E-05   6.912000E-05   6.912000E-05   6.912000E-05   6.912000E-05   6.912000E-05   6.912000E-05   6.912000E-05   6.912000E-05   6.912000E-05   6.912000E-05   6.912000E-05   6.912000E-05   6.912000E-05   6.912000E-05   6.912000E-05
   6.912000E-05   6.912000E-05   6.912000E-05   6.912000E-05   6.912000E-05   6.912000E-05   6.912000E-05   6.912000E-05   6.912000E-05   6.912000E-05   6.912000E-05   6.912000E-05   6.912000E-05   6.912000E-05   6.912000E-05   6.912000E-05   6.912000E-05   6.912000E-05   6.912000E-05   6.912000E-05
   6.912000E-05   6.912000E-05   6.912000E-05   6.912000E-05   6.912000E-05   6.912000E-05   6.912000E-05   6.912000E-05   6.912000E-05   6.912000E-05   6.912000E-05   6.912000E-05   6.912000E-05   6.912000E-05   6.912000E-05   6.912000E-05   6.912000E-05   6.912000E-05   6.912000E-05   6.912000E-05
   6.912000E-05   6.912000E-05   6.912000E-05   6.912000E-05   6.912000E-05   6.912000E-05   6.912000E-05   6.912000E-05   6.912000E-05   6.912000E-05   6.912000E-05   6.912000E-05   6.912000E-05   6.912000E-05   6.912000E-05   6.912000E-05   6.912000E-05   6.912000E-05   6.912000E-05   6.912000E-05
   6.912000E-05   6.912000E-05   6.912000E-05   6.912000E-05   6.912000E-05   6.912000E-05   6.912000E-05   6.912000E-05   6.912000E-05   6.912000E-05   6.912000E-05   6.912000E-05   6.912000E-05   6.912000E-05   6.912000E-05   6.912000E-05   6.912000E-05   6.912000E-05   6.912000E-05   6.912000E-05
   6.912000E-05   6.912000E-05   6.912000E-05   6.912000E-05   6.912000E-05   6.912000E-05   6.912000E-05   6.912000E-05   6.912000E-05   6.912000E-05   6.912000E-05   6.912000E-05   6.912000E-05   6.912000E-05   6.912000E-05   6.912000E-05   6.912000E-05   6.912000E-05   6.912000E-05   6.912000E-05
   6.912000E-05   6.912000E-05   6.912000E-05   6.912000E-05   6.912000E-05   6.912000E-05   6.912000E-05   6.912000E-05   6.912000E-05   6.912000E-05   6.912000E-05   6.912000E-05   6.912000E-05   6.912000E-05   6.912000E-05   6.912000E-05   6.912000E-05   6.912000E-05   6.912000E-05   6.912000E-05
   6.912000E-05   6.912000E-05   6.912000E-05   6.912000E-05   6.912000E-05   6.912000E-05   6.912000E-05   6.912000E-05   6.912000E-05   6.912000E-05   6.912000E-05   6.912000E-05   6.912000E-05   6.912000E-05   6.912000E-05   6.912000E-05   6.912000E-05   6.912000E-05   6.912000E-05   6.912000E-05
   6.912000E-05   6.912000E-05   6.912000E-05   6.912000E-05   6.912000E-05   6.912000E-05   6.912000E-05   6.912000E-05   6.912000E-05   6.912000E-05   6.912000E-05   6.912000E-05   6.912000E-05   6.912000E-05   6.912000E-05   6.912000E-05   6.912000E-05   6.912000E-05   6.912000E-05   6.912000E-05
   6.912000E-05   6.912000E-05   6.912000E-05   6.912000E-05   6.912000E-05   6.912000E-05   6.912000E-05   6.912000E-05   6.912000E-05   6.912000E-05   6.912000E-05   6.912000E-05   6.912000E-05   6.912000E-05   6.912000E-05   6.912000E-05   6.912000E-05   6.912000E-05   6.912000E-05   6.912000E-05
         1        -1 # Stress period 3
INTERNAL               1     (FREE) -1 #rech_3                        
   6.912000E-05   6.912000E-05   6.912000E-05   6.912000E-05   6.912000E-05   6.912000E-05   6.912000E-05   6.912000E-05   6.912000E-05   6.912000E-05   6.912000E-05   6.912000E-05   6.912000E-05   6.912000E-05   6.912000E-05   6.912000E-05   6.912000E-05   6.912000E-05   6.912000E-05   6.912000E-05
   6.912000E-05   6.912000E-05   6.912000E-05   6.912000E-05   6.912000E-05   6.912000E-05   6.912000E-05   6.912000E-05   6.912000E-05   6.912000E-05   6.912000E-05   6.912000E-05   6.912000E-05   6.912000E-05   6.912000E-05   6.912000E-05   6.912000E-05   6.912000E-05   6.912000E-05   6.912000E-05
   6.912000E-05   6.912000E-05   6.912000E-05   6.912000E-05   6.912000E-05   6.912000E-05   6.912000E-05   6.912000E-05   6.912000E-05   6.912000E-05   6.912000E-05   6.912000E-05   6.912000E-05   6.912000E-05   6.912000E-05   6.912000E-05   6.912000E-05   6.912000E-05   6.912000E-05   6.912000E-05
   6.912000E-05   6.912000E-05   6.912000E-05   6.912000E-05   6.912000E-05   6.912000E-05   6.912000E-05   6.912000E-05   6.912000E-05   6.912000E-05   6.912000E-05   6.912000E-05   6.912000E-05   6.912000E-05   6.912000E-05   6.912000E-05   6.912000E-05   6.912000E-05   6.912000E-05   6.912000E-05
   6.912000E-05   6.912000E-05   6.912000E-05   6.912000E-05   6.912000E-05   6.912000E-05   6.912000E-05   6.912000E-05   6.912000E-05   6.912000E-05   6.912000E-05   6.912000E-05   6.912000E-05   6.912000E-05   6.912000E-05   6.912000E-05   6.912000E-05   6.912000E-05   6.912000E-05   6.912000E-05
   6.912000E-05   6.912000E-05   6.912000E-05   6.912000E-05   6.912000E-05   6.912000E-05   6.912000E-05   6.912000E-05   6.912000E-05   6.912000E-05   6.912000E-05   6.912000E-05   6.912000E-05   6.912000E-05   6.912000E-05   6.912000E-05   6.912000E-05   6.912000E-05   6.912000E-05   6.912000E-05
   6.912000E-05   6.912000E-05   6.912000E-05   6.912000E-05   6.912000E-05   6.912000E-05   6.912000E-05   6.912000E-05   6.912000E-05   6.912000E-05   6.912000E-05   6.912000E-05   6.912000E-05   6.912000E-05   6.912000E-05   6.912000E-05   6.912000E-05   6.912000E-05   6.912000E-05   6.912000E-05
   6.912000E-05   6.912000E-05   6.912000E-05   6.912000E-05   6.912000E-05   6.912000E-05   6.912000E-05   6.912000E-05   6.912000E-05   6.912000E-05   6.912000E-05   6.912000E-05   6.912000E-05   6.912000E-05   6.912000E-05   6.912000E-05   6.912000E-05   6.912000E-05   6.912000E-05   6.912000E-05
   6.912000E-05   6.912000E-05   6.912000E-05   6.912000E-05   6.912000E-05   6.912000E-05   6.912000E-05   6.912000E-05   6.912000E-05   6.912000E-05   6.912000E-05   6.912000E-05   6.912000E-05   6.912000E-05   6.912000E-05   6.912000E-05   6.912000E-05   6.912000E-05   6.912000E-05   6.912000E-05
   6.912000E-05   6.912000E-05   6.912000E-05   6.912000E-05   6.912000E-05   6.912000E-05   6.912000E-05   6.912000E-05   6.912000E-05   6.912000E-05   6.912000E-05   6.912000E-05   6.912000E-05   6.912000E-05   6.912000E-05   6.912000E-05   6.912000E-05   6.912000E-05   6.912000E-05   6.912000E-05
   6.912000E-05   6.912000E-05   6.912000E-05   6.912000E-05   6.912000E-05   6.912000E-05   6.912000E-05   6.912000E-05   6.912000E-05   6.912000E-05   6.912000E-05   6.912000E-05   6.912000E-05   6.912000E-05   6.912000E-05   6.912000E-05   6.912000E-05   6.912000E-05   6.912000E-05   6.912000E-05
   6.912000E-05   6.912000E-05   6.912000E-05   6.912000E-05   6.912000E-05   6.912000E-05   6.912000E-05   6.912000E-05   6.912000E-05   6.912000E-05   6.912000E-05   6.912000E-05   6.912000E-05   6.912000E-05   6.912000E-05   6.912000E-05   6.912000E-05   6.912000E-05   6.912000E-05   6.912000E-05
   6.912000E-05   6.912000E-05   6.912000E-05   6.912000E-05   6.912000E-05   6.912000E-05   6.912000E-05   6.912000E-05   6.912000E-05   6.912000E-05   6.912000E-05   6.912000E-05   6.912000E-05   6.912000E-05   6.912000E-05   6.912000E-05   6.912000E-05   6.912000E-05   6.912000E-05   6.912000E-05
   6.912000E-05   6.912000E-05   6.912000E-05   6.912000E-05   6.912000E-05   6.912000E-05   6.912000E-05   6.912000E-05   6.912000E-05   6.912000E-05   6.912000E-05   6.912000E-05   6.912000E-05   6.912000E-05   6.912000E-05   6.912000E-05   6.912000E-05   6.912000E-05   6.912000E-05   6.912000E-05
   6.912000E-05   6.912000E-05   6.912000E-05   6.912000E-05   6.912000E-05   6.912000E-05   6.912000E-05   6.912000E-05   6.912000E-05   6.912000E-05   6.912000E-05   6.912000E-05   6.912000E-05   6.912000E-05   6.912000E-05   6.912000E-05   6.912000E-05   6.912000E-05   6.912000E-05   6.912000E-05
   6.912000E-05   6.912000E-05   6.912000E-05   6.912000E-05   6.912000E-05   6.912000E-05   6.912000E-05   6.912000E-05   6.912000E-05   6.912000E-05   6.912000E-05   6.912000E-05   6.912000E-05   6.912000E-05   6.912000E-05   6.912000E-05   6.912000E-05   6.912000E-05   6.912000E-05   6.912000E-05
   6.912000E-05   6.912000E-05   6.912000E-05   6.912000E-05   6.912000E-05   6.912000E-05   6.912000E-05   6.912000E-05   6.912000E-05   6.912000E-05   6.912000E-05   6.912000E-05   6.912000E-05   6.912000E-05   6.912000E-05   6.912000E-05   6.912000E-05   6.912000E-05   6.912000E-05   6.912000E-05
   6.912000E-05   6.912000E-05   6.912000E-05   6.912000E-05   6.912000E-05   6.912000E-05   6.912000E-05   6.912000E-05   6.912000E-05   6.912000E-05   6.912000E-05   6.912000E-05   6.912000E-05   6.912000E-05   6.912000E-05   6.912000E-05   6.912000E-05   6.912000E-05   6.912000E-05   6.912000E-05