# WEL package for MODFLOW-NWT generated by Flopy 3.3.6
         6        50 
         6         0 # stress period 1
         3        10        17          -708.0
         3        12        14          -354.0
         3        21        15          -336.0
         3        27        11           -71.0
         3        30         7           -62.0
         3        35        13          -371.0
         6         0 # stress period 2
         3        10        17          -885.0
         3        12        14          -442.5
         3        21        15          -420.0
         3        27        11          -88.75
         3        30         7           -77.5
         3        35        13         -463.75
         6         0 # stress period 3
         3        10        17          -885.0
         3        12        14          -442.5
         3        21        15          -420.0
         3        27        11          -88.75
         3        30         7           -77.5
         3        35        13         -463.75
