# Name file for MT3DMS, generated by Flopy version 3.2.8.
LIST              16  freyberg_mt.list
FTL               10  mt3d_link.ftl FREE
BTN               31  freyberg_mt.btn 
ADV             5001  freyberg_mt.adv 
GCG               35  freyberg_mt.gcg 
SSM               34  freyberg_mt.ssm 
SFT               19  freyberg_mt.sft 
DATA            1001  freyberg_mt
