# LMT6 package for MODFLOW-NWT generated by Flopy 3.3.6
OUTPUT_FILE_NAME     mt3d_link.ftl       
OUTPUT_FILE_UNIT             54
OUTPUT_FILE_HEADER   extended            
OUTPUT_FILE_FORMAT   formatted           
