pcf
* control data
             restart          estimation
        10        10         2         8         3         0
         3         5              single               point         1         0         0          noobsreref
   1.000000E+01   2.000000E+00   1.000000E-01   3.000000E-02        10       999          lamforgive        noderforgive
   3.000000E+00   3.000000E+00   1.000000E-03         0         0
   3.000000E-01         1   1.100000E+00               noaui          nosenreuse        noboundscale
        -1   5.000000E-03         4         4   1.000000E-03         4   0.000000E+00         1  -1.000000E+00
         1         1         1         0             jcosave          verboserec          jcosaveitn          reisaveitn          parsaveitn        noparsaverun
* singular value decomposition
         1
  10000000    1.000000E-06
1
* parameter groups
p                       relative              1.0000000000E-02       0.0  switch                2.0000000000E+00       parabolic             1.0000000000E-05      5.0000000000E-01       smaller              
m                       relative              1.0000000000E-02       0.0  switch                2.0000000000E+00       parabolic             1.0000000000E-05      5.0000000000E-01       smaller
* parameter data
global_k               log                    factor                2.2500000000E+02      1.5000000000E+02      2.5000000000E+02       m                     1.0000000000E+00      0.0000000000E+00      1          
mult1                  log                    factor                1.0000000000E+00      7.5000000000E-01      1.2500000000E+00       m                     1.0000000000E+00      0.0000000000E+00      1          
mult2                  log                    factor                1.0000000000E+00      5.0000000000E-01      2.0000000000E+00       m                     1.0000000000E+00      0.0000000000E+00      1          
kr01c01                log                    factor                1.0000000000E+00      1.0000000000E-01      1.0000000000E+01       p                     1.0000000000E+00      0.0000000000E+00      1          
kr01c02                log                    factor                1.0000000000E+00      1.0000000000E-01      1.0000000000E+01       p                     1.0000000000E+00      0.0000000000E+00      1          
kr01c03                log                    factor                1.0000000000E+00      1.0000000000E-01      1.0000000000E+01       p                     1.0000000000E+00      0.0000000000E+00      1          
kr01c04                log                    factor                1.0000000000E+00      1.0000000000E-01      1.0000000000E+01       p                     1.0000000000E+00      0.0000000000E+00      1          
kr01c05                log                    factor                1.0000000000E+00      1.0000000000E-01      1.0000000000E+01       p                     1.0000000000E+00      0.0000000000E+00      1          
kr01c06                log                    factor                1.0000000000E+00      1.0000000000E-01      1.0000000000E+01       p                     1.0000000000E+00      0.0000000000E+00      1          
kr01c07                log                    factor                1.0000000000E+00      1.0000000000E-01      1.0000000000E+01       p                     1.0000000000E+00      0.0000000000E+00      1
* observation groups
head                 
regul_p              
regul_m              
* observation data
h_obs01_1             5.1396200000E-02      2.5000000000E+01       head                 
h_obs01_2             2.2156200000E-02      0.0000000000E+00       head                 
h_obs02_1             4.6879400000E-02      1.5214580000E+02       head                 
h_obs02_2             2.0852800000E-02      0.0000000000E+00       head                 
h_obs03_1             3.6584100000E-02      1.5214580000E+02       head                 
h_obs03_2             1.9502200000E-02      0.0000000000E+00       head                 
h_obs04_1             2.7541600000E-02      1.5214580000E+02       head                 
h_obs04_2             1.6946400000E-02      0.0000000000E+00       head                 
h_obs05_1             2.6381600000E-02      1.5214580000E+02       head                 
h_obs05_2             7.5455700000E-03      0.0000000000E+00       head
* model command line
model.bat
* model input/output
misc\pp_locs.tpl misc\pp_locs.dat
misc\par2par_coarse.tpl misc\par2par_coarse.in
misc\global_k.tpl misc\global_k.dat
misc\conc.ins misc\conc.dat
misc\head.ins misc\head.dat
misc\pred_dist_one.ins misc\pred_dist_one.dat
misc\pred_dist_ten.ins misc\pred_dist_ten.dat
misc\pred_dist_half.ins misc\pred_dist_half.dat
* prior information
mult1                 1.0 * log(mult1) = 0.000000 1.0000000000E+00     regul_m              
kr01c01               1.0 * log(kr01c01) = 0.0    1.0000000000E+00     regul_p              
kr01c02               1.0 * log(kr01c02) = 0.0    1.0000000000E+00     regul_p              
kr01c03               1.0 * log(kr01c03) = 0.0    1.0000000000E+00     regul_p              
kr01c04               1.0 * log(kr01c04) = 0.0    1.0000000000E+00     regul_p              
kr01c05               1.0 * log(kr01c05) = 0.0    1.0000000000E+00     regul_p              
kr01c06               1.0 * log(kr01c06) = 0.0    1.0000000000E+00     regul_p              
kr01c07               1.0 * log(kr01c07) = 0.0    1.0000000000E+00     regul_p              
++N_ITER_BASE(1)
++AUTO_NORM(4)
++OVERDUE_GIVEUP_FAC(1.5)
++forecasts(pd_ten,c_obs10_2)
++SUPER_EIGTHRES(1.0e-8)
++OVERDUE_RESCHED_FAC(1.15)
++N_ITER_SUPER(4)
++MAX_N_SUPER(77)
