pcf
* control data
restart  estimation
   17  1777    17     0    1
    1     1 single point   1   0   0
  5.0   2.0   0.3  0.03    10 
  3.0   3.0 0.001  0
  0.1
   30  0.01     3     3  0.01     3
    1     1     1
* singular value decomposition
1
13 .00000007
0
* parameter groups
b             absolute 0.01 0.0  switch  2.0 parabolic
a1           relative 0.01  0.0  switch  2.0 parabolic
a2           relative 0.01  0.0  switch  2.0 parabolic
a3           relative 0.01  0.0  switch  2.0 parabolic
a4           relative 0.01  0.0  switch  2.0 parabolic
g            relative 0.01  0.0  switch  2.0 parabolic
h            absolute 0.01  0.0  switch  2.0 parabolic
c            relative 0.01  0.0  switch  2.0 parabolic
d            relative 0.01  0.0  switch  2.0 parabolic
e            relative 0.01  0.0  switch  2.0 parabolic
t04          relative 0.00001  0.0  switch  2.0 parabolic
t4           relative 0.01  0.0  switch  2.0 parabolic
u4           relative 0.01  0.0  switch  2.0 parabolic
t01          relative 0.00001  0.0  switch  2.0 parabolic
t1           relative 0.01  0.0  switch  2.0 parabolic
u1           absolute 0.00001  0.0  switch  2.0 parabolic
m           absolute 0.01  0.0  switch  2.0 parabolic
* parameter data
b            none relative    -0.31          -1.000000E+10    1.0 b               1.0000        0.0000      1
a1           none relative   0.121970      -1.000000E+10   1.000000E+10 a1              1.0000        0.0000      1
a2           none relative   3.449000E-02  -1.000000E+10   1.000000E+10 a2              1.0000        0.0000      1
a3           none relative  -1.640000E-02  -1.000000E+10   1.000000E+10 a3              1.0000        0.0000      1
a4           none relative   2.038000E-02  -1.000000E+10   1.000000E+10 a4              1.0000        0.0000      1
g            none relative   -19.9829      -1.000000E+10   1.000000E+10 g               1.0000        0.0000      1
h            none relative   -2.71254      -1.000000E+10   0.0 h               1.0000        0.0000      1
c            none relative   -5.29094      -1.000000E+10   1.000000E+10 c               1.0000        0.0000      1
d            none relative   -7.14580      -1.000000E+10   1.000000E+10 d               1.0000        0.0000      1
e            none relative   -17.2090      -1.000000E+10   1.000000E+10 e               1.0000        0.0000      1
t04          none relative    2014.14      2014.09  2014.2 t04             1.0000        0.0000      1
t4           none relative  30.0      0.01   80.0 t4              1.0000        0.0000      1
u4           none relative   -1.15363      -1.000000E+10   1.000000E+10 u4              1.0000        0.0000      1
t01          none relative    2011.49      2011.45  2014.55 t01             1.0000        0.0000      1
t1           none relative  20.0      10.0   30.0 t1              1.0000        0.0000      1
u1           none relative   0.0      -0.01 0.01 u1              1.0000        0.0000      1
m            none relative    0.0          -1.000000E+10    1.000000E+10 m               1.0000        0.0000      1
* observation groups
obsgroup
* observation data
obs1                   -1.63000      1.0  obsgroup
obs2                    0.00000      1.0  obsgroup
obs3                  -0.730000      1.0  obsgroup
obs4                   -2.20000      1.0  obsgroup
obs5                  -0.220000      1.0  obsgroup
obs6                  -0.490000      1.0  obsgroup
obs7                   -1.78000      1.0  obsgroup
obs8                   -1.89000      1.0  obsgroup
obs9                   -2.28000      1.0  obsgroup
obs10                  -2.27000      1.0  obsgroup
obs11                  -2.16000      1.0  obsgroup
obs12                  -1.67000      1.0  obsgroup
obs13                 -0.720000      1.0  obsgroup
obs14                  -1.74000      1.0  obsgroup
obs15                  -1.74000      1.0  obsgroup
obs16                  -2.15000      1.0  obsgroup
obs17                  -1.44000      1.0  obsgroup
obs18                  -3.09000      1.0  obsgroup
obs19                  -1.75000      1.0  obsgroup
obs20                  -1.49000      1.0  obsgroup
obs21                  -1.41000      1.0  obsgroup
obs22                 -0.590000      1.0  obsgroup
obs23                  -2.76000      1.0  obsgroup
obs24                  -2.02000      1.0  obsgroup
obs25                  -2.74000      1.0  obsgroup
obs26                  -1.51000      1.0  obsgroup
obs27                 -0.260000      1.0  obsgroup
obs28                  -2.57000      1.0  obsgroup
obs29                  -1.51000      1.0  obsgroup
obs30                  -1.98000      1.0  obsgroup
obs31                  -2.10000      1.0  obsgroup
obs32                  -1.88000      1.0  obsgroup
obs33                  -1.70000      1.0  obsgroup
obs34                  -2.06000      1.0  obsgroup
obs35                  -1.95000      1.0  obsgroup
obs36                  -1.90000      1.0  obsgroup
obs37                  -2.98000      1.0  obsgroup
obs38                  -1.56000      1.0  obsgroup
obs39                  -2.16000      1.0  obsgroup
obs40                  -2.62000      1.0  obsgroup
obs41                  -2.18000      1.0  obsgroup
obs42                  -2.41000      1.0  obsgroup
obs43                  -3.39000      1.0  obsgroup
obs44                  -3.97000      1.0  obsgroup
obs45                  -2.81000      1.0  obsgroup
obs46                  -2.94000      1.0  obsgroup
obs47                 -0.900000      1.0  obsgroup
obs48                  -2.31000      1.0  obsgroup
obs49                  -2.09000      1.0  obsgroup
obs50                  -2.23000      1.0  obsgroup
obs51                  -1.83000      1.0  obsgroup
obs52                  -2.34000      1.0  obsgroup
obs53                 -0.770000      1.0  obsgroup
obs54                  -2.91000      1.0  obsgroup
obs55                 -0.690000      1.0  obsgroup
obs56                  -1.85000      1.0  obsgroup
obs57                  -2.04000      1.0  obsgroup
obs58                  -1.16000      1.0  obsgroup
obs59                  -1.88000      1.0  obsgroup
obs60                  -1.56000      1.0  obsgroup
obs61                  -1.73000      1.0  obsgroup
obs62                  -1.65000      1.0  obsgroup
obs63                  -1.57000      1.0  obsgroup
obs64                  -2.91000      1.0  obsgroup
obs65                  -3.19000      1.0  obsgroup
obs66                  -1.91000      1.0  obsgroup
obs67                  -1.50000      1.0  obsgroup
obs68                  -1.77000      1.0  obsgroup
obs69                  -1.57000      1.0  obsgroup
obs70                  -2.20000      1.0  obsgroup
obs71                  -4.48000      1.0  obsgroup
obs72                  -2.80000      1.0  obsgroup
obs73                  -1.83000      1.0  obsgroup
obs74                 -0.840000      1.0  obsgroup
obs75                  -1.90000      1.0  obsgroup
obs76                  -3.31000      1.0  obsgroup
obs77                  -2.87000      1.0  obsgroup
obs78                  -1.00000      1.0  obsgroup
obs79                  -1.10000      1.0  obsgroup
obs80                 -0.830000      1.0  obsgroup
obs81                  -2.82000      1.0  obsgroup
obs82                  -1.39000      1.0  obsgroup
obs83                  -3.03000      1.0  obsgroup
obs84                  -2.96000      1.0  obsgroup
obs85                  -1.48000      1.0  obsgroup
obs86                  -2.22000      1.0  obsgroup
obs87                  -1.97000      1.0  obsgroup
obs88                  -1.66000      1.0  obsgroup
obs89                  -1.85000      1.0  obsgroup
obs90                  -2.19000      1.0  obsgroup
obs91                  -1.17000      1.0  obsgroup
obs92                  -1.55000      1.0  obsgroup
obs93                  -2.74000      1.0  obsgroup
obs94                  -1.48000      1.0  obsgroup
obs95                  -1.64000      1.0  obsgroup
obs96                  -1.70000      1.0  obsgroup
obs97                 -0.750000      1.0  obsgroup
obs98                 -0.260000      1.0  obsgroup
obs99                  -2.65000      1.0  obsgroup
obs100                 -2.87000      1.0  obsgroup
obs101                -0.750000      1.0  obsgroup
obs102                 -1.54000      1.0  obsgroup
obs103                 -1.39000      1.0  obsgroup
obs104                 -2.21000      1.0  obsgroup
obs105                 -2.55000      1.0  obsgroup
obs106                 -1.99000      1.0  obsgroup
obs107                 -4.23000      1.0  obsgroup
obs108                 -2.82000      1.0  obsgroup
obs109                 -1.72000      1.0  obsgroup
obs110                 -1.98000      1.0  obsgroup
obs111                 -2.96000      1.0  obsgroup
obs112                 -1.61000      1.0  obsgroup
obs113                 -1.80000      1.0  obsgroup
obs114                -0.980000      1.0  obsgroup
obs115                -0.760000      1.0  obsgroup
obs116                 -1.58000      1.0  obsgroup
obs117                 -1.75000      1.0  obsgroup
obs118                 -1.50000      1.0  obsgroup
obs119                 -3.23000      1.0  obsgroup
obs120                 -1.16000      1.0  obsgroup
obs121                 -2.61000      1.0  obsgroup
obs122                 -3.51000      1.0  obsgroup
obs123                 -1.97000      1.0  obsgroup
obs124                -0.550000      1.0  obsgroup
obs125                 -3.17000      1.0  obsgroup
obs126                 -1.69000      1.0  obsgroup
obs127                 -1.87000      1.0  obsgroup
obs128                 -2.12000      1.0  obsgroup
obs129                 -1.26000      1.0  obsgroup
obs130                 -2.41000      1.0  obsgroup
obs131                 -2.78000      1.0  obsgroup
obs132                 -2.21000      1.0  obsgroup
obs133                 -1.79000      1.0  obsgroup
obs134                 -1.63000      1.0  obsgroup
obs135                 -1.65000      1.0  obsgroup
obs136                 -1.50000      1.0  obsgroup
obs137                 -2.05000      1.0  obsgroup
obs138                 -2.25000      1.0  obsgroup
obs139                 -2.15000      1.0  obsgroup
obs140                -0.960000      1.0  obsgroup
obs141                 -2.05000      1.0  obsgroup
obs142                 -1.70000      1.0  obsgroup
obs143                 -1.95000      1.0  obsgroup
obs144                 -3.06000      1.0  obsgroup
obs145                 -3.12000      1.0  obsgroup
obs146                 -2.07000      1.0  obsgroup
obs147                 -2.29000      1.0  obsgroup
obs148                 -2.10000      1.0  obsgroup
obs149                 -1.67000      1.0  obsgroup
obs150                 -1.59000      1.0  obsgroup
obs151                 -2.61000      1.0  obsgroup
obs152                 -1.64000      1.0  obsgroup
obs153                 -1.31000      1.0  obsgroup
obs154                 -1.63000      1.0  obsgroup
obs155                 -1.98000      1.0  obsgroup
obs156                 -2.63000      1.0  obsgroup
obs157                 -1.60000      1.0  obsgroup
obs158                 -1.05000      1.0  obsgroup
obs159                 -1.98000      1.0  obsgroup
obs160                 -2.33000      1.0  obsgroup
obs161                -0.880000      1.0  obsgroup
obs162                 -1.84000      1.0  obsgroup
obs163                 -1.75000      1.0  obsgroup
obs164                 -2.28000      1.0  obsgroup
obs165                 -1.76000      1.0  obsgroup
obs166                 -2.30000      1.0  obsgroup
obs167                 -1.23000      1.0  obsgroup
obs168                 -1.58000      1.0  obsgroup
obs169                 -1.80000      1.0  obsgroup
obs170                 -1.30000      1.0  obsgroup
obs171                 -2.01000      1.0  obsgroup
obs172                 -2.07000      1.0  obsgroup
obs173                 -1.85000      1.0  obsgroup
obs174                 -1.24000      1.0  obsgroup
obs175                 -2.03000      1.0  obsgroup
obs176                 -1.71000      1.0  obsgroup
obs177                 -1.46000      1.0  obsgroup
obs178                 -1.25000      1.0  obsgroup
obs179                -0.690000      1.0  obsgroup
obs180                 -1.54000      1.0  obsgroup
obs181                 -2.72000      1.0  obsgroup
obs182                 -1.24000      1.0  obsgroup
obs183                 -1.88000      1.0  obsgroup
obs184                -0.710000      1.0  obsgroup
obs185                -0.390000      1.0  obsgroup
obs186                 -1.12000      1.0  obsgroup
obs187                -0.770000      1.0  obsgroup
obs188                 -1.65000      1.0  obsgroup
obs189                 -1.23000      1.0  obsgroup
obs190                 -1.11000      1.0  obsgroup
obs191                -0.480000      1.0  obsgroup
obs192                 -1.33000      1.0  obsgroup
obs193                -0.500000      1.0  obsgroup
obs194                 -1.66000      1.0  obsgroup
obs195                -0.180000      1.0  obsgroup
obs196                 0.120000      1.0  obsgroup
obs197                -0.980000      1.0  obsgroup
obs198                -0.550000      1.0  obsgroup
obs199                 -1.86000      1.0  obsgroup
obs200                 -1.02000      1.0  obsgroup
obs201                -0.500000      1.0  obsgroup
obs202                -0.860000      1.0  obsgroup
obs203                 -1.24000      1.0  obsgroup
obs204                 -1.04000      1.0  obsgroup
obs205                 -2.05000      1.0  obsgroup
obs206                 -1.19000      1.0  obsgroup
obs207                -0.440000      1.0  obsgroup
obs208                 -1.71000      1.0  obsgroup
obs209                 -1.69000      1.0  obsgroup
obs210                 -1.90000      1.0  obsgroup
obs211                 -1.28000      1.0  obsgroup
obs212                -0.680000      1.0  obsgroup
obs213                -0.260000      1.0  obsgroup
obs214                 -1.30000      1.0  obsgroup
obs215                 -1.47000      1.0  obsgroup
obs216                 -1.44000      1.0  obsgroup
obs217                -0.920000      1.0  obsgroup
obs218                 -1.76000      1.0  obsgroup
obs219                 -1.23000      1.0  obsgroup
obs220                 -1.78000      1.0  obsgroup
obs221                 -1.45000      1.0  obsgroup
obs222                 -1.16000      1.0  obsgroup
obs223                -0.660000      1.0  obsgroup
obs224                 -1.42000      1.0  obsgroup
obs225                 -1.01000      1.0  obsgroup
obs226                 -1.37000      1.0  obsgroup
obs227                -0.800000      1.0  obsgroup
obs228                 -1.20000      1.0  obsgroup
obs229                 -1.48000      1.0  obsgroup
obs230                -0.830000      1.0  obsgroup
obs231                -0.840000      1.0  obsgroup
obs232                -0.580000      1.0  obsgroup
obs233                 0.420000      1.0  obsgroup
obs234                 -1.31000      1.0  obsgroup
obs235                 -1.03000      1.0  obsgroup
obs236                 -1.13000      1.0  obsgroup
obs237                 -1.27000      1.0  obsgroup
obs238                 -1.25000      1.0  obsgroup
obs239                 -1.01000      1.0  obsgroup
obs240                 -1.91000      1.0  obsgroup
obs241                 -1.19000      1.0  obsgroup
obs242                 -1.71000      1.0  obsgroup
obs243                -0.950000      1.0  obsgroup
obs244                -0.780000      1.0  obsgroup
obs245                 -1.12000      1.0  obsgroup
obs246                 -1.23000      1.0  obsgroup
obs247                 -1.69000      1.0  obsgroup
obs248                 -1.11000      1.0  obsgroup
obs249                -0.690000      1.0  obsgroup
obs250                 -1.24000      1.0  obsgroup
obs251                 -1.75000      1.0  obsgroup
obs252                 -1.12000      1.0  obsgroup
obs253                -0.430000      1.0  obsgroup
obs254                 -1.83000      1.0  obsgroup
obs255                 -1.72000      1.0  obsgroup
obs256                 -1.45000      1.0  obsgroup
obs257                 -1.77000      1.0  obsgroup
obs258                -0.890000      1.0  obsgroup
obs259                 -1.49000      1.0  obsgroup
obs260                -0.930000      1.0  obsgroup
obs261                 -1.51000      1.0  obsgroup
obs262                 -2.50000      1.0  obsgroup
obs263                 -1.59000      1.0  obsgroup
obs264                -0.320000      1.0  obsgroup
obs265                -0.880000      1.0  obsgroup
obs266                 0.150000      1.0  obsgroup
obs267                -0.570000      1.0  obsgroup
obs268                 -1.05000      1.0  obsgroup
obs269                -0.580000      1.0  obsgroup
obs270                 -1.40000      1.0  obsgroup
obs271                -0.480000      1.0  obsgroup
obs272                -0.270000      1.0  obsgroup
obs273                -0.850000      1.0  obsgroup
obs274                 -2.22000      1.0  obsgroup
obs275                 -1.62000      1.0  obsgroup
obs276                 -2.39000      1.0  obsgroup
obs277                 -1.85000      1.0  obsgroup
obs278                -0.430000      1.0  obsgroup
obs279                 -1.36000      1.0  obsgroup
obs280                -0.410000      1.0  obsgroup
obs281                 -1.18000      1.0  obsgroup
obs282                -0.520000      1.0  obsgroup
obs283                 0.200000      1.0  obsgroup
obs284                -0.390000      1.0  obsgroup
obs285                 0.570000      1.0  obsgroup
obs286                -0.580000      1.0  obsgroup
obs287                 -2.44000      1.0  obsgroup
obs288                -0.710000      1.0  obsgroup
obs289                -0.950000      1.0  obsgroup
obs290                 -1.81000      1.0  obsgroup
obs291                -0.900000      1.0  obsgroup
obs292                 0.110000      1.0  obsgroup
obs293                 -1.45000      1.0  obsgroup
obs294                -0.490000      1.0  obsgroup
obs295                 -1.05000      1.0  obsgroup
obs296                 -1.20000      1.0  obsgroup
obs297                -0.840000      1.0  obsgroup
obs298                -0.780000      1.0  obsgroup
obs299                 -1.29000      1.0  obsgroup
obs300                 -1.24000      1.0  obsgroup
obs301                 -2.54000      1.0  obsgroup
obs302                 -2.69000      1.0  obsgroup
obs303                 -1.00000      1.0  obsgroup
obs304                -0.960000      1.0  obsgroup
obs305                 -1.19000      1.0  obsgroup
obs306                 -2.32000      1.0  obsgroup
obs307                -0.590000      1.0  obsgroup
obs308                 -2.67000      1.0  obsgroup
obs309                 -1.49000      1.0  obsgroup
obs310                -0.620000      1.0  obsgroup
obs311                -0.530000      1.0  obsgroup
obs312                 -2.42000      1.0  obsgroup
obs313                 -1.06000      1.0  obsgroup
obs314                 -1.80000      1.0  obsgroup
obs315                -0.920000      1.0  obsgroup
obs316                 -1.14000      1.0  obsgroup
obs317                 -3.06000      1.0  obsgroup
obs318                 -1.61000      1.0  obsgroup
obs319                 -1.91000      1.0  obsgroup
obs320                 -2.23000      1.0  obsgroup
obs321                 -1.89000      1.0  obsgroup
obs322                 -2.07000      1.0  obsgroup
obs323                 -2.45000      1.0  obsgroup
obs324                 -2.22000      1.0  obsgroup
obs325                 -2.38000      1.0  obsgroup
obs326                 -3.90000      1.0  obsgroup
obs327                 -2.54000      1.0  obsgroup
obs328                 -1.09000      1.0  obsgroup
obs329                 -1.25000      1.0  obsgroup
obs330                 -1.90000      1.0  obsgroup
obs331                 -2.29000      1.0  obsgroup
obs332                 -1.95000      1.0  obsgroup
obs333                 -1.98000      1.0  obsgroup
obs334                 -1.20000      1.0  obsgroup
obs335                -0.640000      1.0  obsgroup
obs336                 -2.72000      1.0  obsgroup
obs337                 -2.55000      1.0  obsgroup
obs338                 -2.01000      1.0  obsgroup
obs339                 -1.45000      1.0  obsgroup
obs340                 -1.73000      1.0  obsgroup
obs341                 -2.32000      1.0  obsgroup
obs342                 -1.93000      1.0  obsgroup
obs343                 -1.05000      1.0  obsgroup
obs344                 -1.33000      1.0  obsgroup
obs345                 -1.57000      1.0  obsgroup
obs346                 -1.60000      1.0  obsgroup
obs347                 -1.11000      1.0  obsgroup
obs348                 -1.64000      1.0  obsgroup
obs349                 -1.76000      1.0  obsgroup
obs350                 -2.21000      1.0  obsgroup
obs351                 -2.50000      1.0  obsgroup
obs352                 -1.89000      1.0  obsgroup
obs353                 -2.96000      1.0  obsgroup
obs354                 -1.38000      1.0  obsgroup
obs355                 -2.44000      1.0  obsgroup
obs356                 -2.52000      1.0  obsgroup
obs357                 -1.84000      1.0  obsgroup
obs358                 -1.62000      1.0  obsgroup
obs359                 -2.31000      1.0  obsgroup
obs360                 -2.08000      1.0  obsgroup
obs361                 -1.68000      1.0  obsgroup
obs362                 -2.16000      1.0  obsgroup
obs363                 -1.84000      1.0  obsgroup
obs364                 -1.02000      1.0  obsgroup
obs365                 -2.17000      1.0  obsgroup
obs366                 -1.76000      1.0  obsgroup
obs367                 -2.72000      1.0  obsgroup
obs368                -0.970000      1.0  obsgroup
obs369                 -2.61000      1.0  obsgroup
obs370                 -2.82000      1.0  obsgroup
obs371                 -2.05000      1.0  obsgroup
obs372                 -2.82000      1.0  obsgroup
obs373                 -1.66000      1.0  obsgroup
obs374                -0.720000      1.0  obsgroup
obs375                 -2.07000      1.0  obsgroup
obs376                 -2.37000      1.0  obsgroup
obs377                 -2.03000      1.0  obsgroup
obs378                 -3.20000      1.0  obsgroup
obs379                 -2.19000      1.0  obsgroup
obs380                 -1.80000      1.0  obsgroup
obs381                 -2.50000      1.0  obsgroup
obs382                 -2.81000      1.0  obsgroup
obs383                 -3.47000      1.0  obsgroup
obs384                 -3.59000      1.0  obsgroup
obs385                -0.270000      1.0  obsgroup
obs386                 -1.83000      1.0  obsgroup
obs387                 -1.86000      1.0  obsgroup
obs388                 -1.94000      1.0  obsgroup
obs389                 -1.52000      1.0  obsgroup
obs390                 -3.12000      1.0  obsgroup
obs391                 -2.91000      1.0  obsgroup
obs392                 -2.71000      1.0  obsgroup
obs393                 -2.23000      1.0  obsgroup
obs394                 -2.46000      1.0  obsgroup
obs395                 -1.88000      1.0  obsgroup
obs396                 -3.05000      1.0  obsgroup
obs397                 -3.11000      1.0  obsgroup
obs398                 -1.95000      1.0  obsgroup
obs399                 -1.96000      1.0  obsgroup
obs400                 -1.98000      1.0  obsgroup
obs401                 -3.81000      1.0  obsgroup
obs402                 -1.47000      1.0  obsgroup
obs403                 -2.20000      1.0  obsgroup
obs404                 -4.21000      1.0  obsgroup
obs405                 -3.05000      1.0  obsgroup
obs406                 -2.62000      1.0  obsgroup
obs407                 -3.39000      1.0  obsgroup
obs408                 -3.04000      1.0  obsgroup
obs409                 -2.33000      1.0  obsgroup
obs410                 -3.73000      1.0  obsgroup
obs411                 -1.47000      1.0  obsgroup
obs412                 -2.24000      1.0  obsgroup
obs413                 -2.62000      1.0  obsgroup
obs414                 -2.67000      1.0  obsgroup
obs415                 -1.65000      1.0  obsgroup
obs416                 -1.91000      1.0  obsgroup
obs417                 -2.54000      1.0  obsgroup
obs418                 -1.90000      1.0  obsgroup
obs419                 -3.36000      1.0  obsgroup
obs420                 -2.30000      1.0  obsgroup
obs421                 -2.38000      1.0  obsgroup
obs422                 -2.09000      1.0  obsgroup
obs423                 -2.05000      1.0  obsgroup
obs424                 -3.04000      1.0  obsgroup
obs425                 -2.56000      1.0  obsgroup
obs426                 -2.62000      1.0  obsgroup
obs427                 -1.87000      1.0  obsgroup
obs428                 -2.70000      1.0  obsgroup
obs429                 -2.39000      1.0  obsgroup
obs430                 -2.52000      1.0  obsgroup
obs431                 -2.78000      1.0  obsgroup
obs432                 -1.81000      1.0  obsgroup
obs433                 -2.82000      1.0  obsgroup
obs434                 -2.34000      1.0  obsgroup
obs435                 -1.71000      1.0  obsgroup
obs436                 -1.56000      1.0  obsgroup
obs437                 -3.12000      1.0  obsgroup
obs438                 -2.61000      1.0  obsgroup
obs439                 -2.53000      1.0  obsgroup
obs440                 -2.21000      1.0  obsgroup
obs441                 -2.67000      1.0  obsgroup
obs442                 -2.31000      1.0  obsgroup
obs443                 -3.51000      1.0  obsgroup
obs444                 -1.44000      1.0  obsgroup
obs445                 -1.84000      1.0  obsgroup
obs446                 -2.79000      1.0  obsgroup
obs447                 -2.11000      1.0  obsgroup
obs448                 -3.48000      1.0  obsgroup
obs449                 -3.77000      1.0  obsgroup
obs450                 -1.14000      1.0  obsgroup
obs451                 -1.81000      1.0  obsgroup
obs452                 -2.00000      1.0  obsgroup
obs453                 -2.21000      1.0  obsgroup
obs454                 -3.11000      1.0  obsgroup
obs455                 -3.79000      1.0  obsgroup
obs456                 -1.57000      1.0  obsgroup
obs457                 -2.60000      1.0  obsgroup
obs458                 -2.49000      1.0  obsgroup
obs459                 -2.81000      1.0  obsgroup
obs460                 -2.37000      1.0  obsgroup
obs461                 -2.58000      1.0  obsgroup
obs462                 -2.83000      1.0  obsgroup
obs463                 -2.87000      1.0  obsgroup
obs464                 -2.25000      1.0  obsgroup
obs465                 -2.72000      1.0  obsgroup
obs466                 -2.87000      1.0  obsgroup
obs467                 -3.34000      1.0  obsgroup
obs468                 -1.77000      1.0  obsgroup
obs469                 -2.50000      1.0  obsgroup
obs470                 -2.35000      1.0  obsgroup
obs471                 -2.09000      1.0  obsgroup
obs472                 -1.65000      1.0  obsgroup
obs473                 -1.16000      1.0  obsgroup
obs474                 -2.58000      1.0  obsgroup
obs475                 -2.46000      1.0  obsgroup
obs476                 -1.95000      1.0  obsgroup
obs477                -0.840000      1.0  obsgroup
obs478                 -1.96000      1.0  obsgroup
obs479                 -1.20000      1.0  obsgroup
obs480                 -1.83000      1.0  obsgroup
obs481                 -1.41000      1.0  obsgroup
obs482                 -1.82000      1.0  obsgroup
obs483                 -1.66000      1.0  obsgroup
obs484                 -1.48000      1.0  obsgroup
obs485                -0.810000      1.0  obsgroup
obs486                 -3.40000      1.0  obsgroup
obs487                 -1.71000      1.0  obsgroup
obs488                 -2.15000      1.0  obsgroup
obs489                 -1.12000      1.0  obsgroup
obs490                 -2.64000      1.0  obsgroup
obs491                 -2.48000      1.0  obsgroup
obs492                 -1.61000      1.0  obsgroup
obs493                 -2.64000      1.0  obsgroup
obs494                 -2.49000      1.0  obsgroup
obs495                 -2.01000      1.0  obsgroup
obs496                 -2.28000      1.0  obsgroup
obs497                 -1.79000      1.0  obsgroup
obs498                 -2.20000      1.0  obsgroup
obs499                 -2.18000      1.0  obsgroup
obs500                 -2.29000      1.0  obsgroup
obs501                 -2.56000      1.0  obsgroup
obs502                 -1.58000      1.0  obsgroup
obs503                 -2.12000      1.0  obsgroup
obs504                 -2.97000      1.0  obsgroup
obs505                 -2.34000      1.0  obsgroup
obs506                 -2.22000      1.0  obsgroup
obs507                 -1.89000      1.0  obsgroup
obs508                 -1.81000      1.0  obsgroup
obs509                 -1.86000      1.0  obsgroup
obs510                 -1.89000      1.0  obsgroup
obs511                 -1.71000      1.0  obsgroup
obs512                 -1.27000      1.0  obsgroup
obs513                 -1.78000      1.0  obsgroup
obs514                 -3.98000      1.0  obsgroup
obs515                 -2.64000      1.0  obsgroup
obs516                 -2.27000      1.0  obsgroup
obs517                 -2.17000      1.0  obsgroup
obs518                 -2.07000      1.0  obsgroup
obs519                 -1.68000      1.0  obsgroup
obs520                 -1.21000      1.0  obsgroup
obs521                 -3.15000      1.0  obsgroup
obs522                 -1.55000      1.0  obsgroup
obs523                 -1.09000      1.0  obsgroup
obs524                 -1.70000      1.0  obsgroup
obs525                 -1.32000      1.0  obsgroup
obs526                 -1.29000      1.0  obsgroup