pcf
* control data
             restart          estimation
        72        33         2         0         5         0
         2         3              single               point         1         0         0            noobsref
   2.000000E+01  -3.000000E+00   3.000000E-01   1.000000E-02        -7       999          lamforgive        noderforgive
   1.000000E+01   1.000000E+01   1.000000E-03         0         0
   1.000000E-01         1   1.100000E+00               noaui          nosenreuse        noboundscale
         -1   1.000000E-02         3         3   1.000000E-02         3   0.000000E+00         1  -1.000000E+00
         0         0         0         0             jcosave          verboserec          jcosaveitn          reisaveitn          parsaveitn        noparsaverun
* parameter groups
pilotpt                 relative              1.0000000000E-02       0.0  switch                2.0000000000E+00       parabolic             1.0000000000E-05      5.0000000000E-01       smaller
rch                     relative              1.0000000000E-02       0.0  switch                2.0000000000E+00       parabolic             1.0000000000E-05      5.0000000000E-01       smaller
* parameter data
rch1                   log                    factor                1.1000000000E-04      7.9000000000E-05      1.5500000000E-04       rch                   1.0000000000E+00      0.0000000000E+00      1
rch2                   fixed                  factor                9.3585080000E-05      7.9000000000E-05      1.5500000000E-04       rch                   1.0000000000E+00      0.0000000000E+00      1
hkpp1                  log                    factor                8.0000000000E+00      1.2500000000E+00      8.0000000000E+01       pilotpt               1.0000000000E+00      0.0000000000E+00      1
hkpp2                  log                    factor                8.0000000000E+00      1.2500000000E+00      8.0000000000E+01       pilotpt               1.0000000000E+00      0.0000000000E+00      1
hkpp3                  log                    factor                8.0000000000E+00      1.2500000000E+00      8.0000000000E+01       pilotpt               1.0000000000E+00      0.0000000000E+00      1
hkpp4                  log                    factor                8.0000000000E+00      1.2500000000E+00      8.0000000000E+01       pilotpt               1.0000000000E+00      0.0000000000E+00      1
hkpp5                  log                    factor                8.0000000000E+00      1.2500000000E+00      8.0000000000E+01       pilotpt               1.0000000000E+00      0.0000000000E+00      1
hkpp6                  log                    factor                8.0000000000E+00      1.2500000000E+00      8.0000000000E+01       pilotpt               1.0000000000E+00      0.0000000000E+00      1
hkpp7                  log                    factor                8.0000000000E+00      1.2500000000E+00      8.0000000000E+01       pilotpt               1.0000000000E+00      0.0000000000E+00      1
hkpp8                  log                    factor                8.0000000000E+00      1.2500000000E+00      8.0000000000E+01       pilotpt               1.0000000000E+00      0.0000000000E+00      1
hkpp9                  log                    factor                8.0000000000E+00      1.2500000000E+00      8.0000000000E+01       pilotpt               1.0000000000E+00      0.0000000000E+00      1
hkpp10                 log                    factor                8.0000000000E+00      1.2500000000E+00      8.0000000000E+01       pilotpt               1.0000000000E+00      0.0000000000E+00      1
hkpp11                 log                    factor                8.0000000000E+00      1.2500000000E+00      8.0000000000E+01       pilotpt               1.0000000000E+00      0.0000000000E+00      1
hkpp12                 log                    factor                8.0000000000E+00      1.2500000000E+00      8.0000000000E+01       pilotpt               1.0000000000E+00      0.0000000000E+00      1
hkpp13                 log                    factor                8.0000000000E+00      1.2500000000E+00      8.0000000000E+01       pilotpt               1.0000000000E+00      0.0000000000E+00      1
hkpp14                 log                    factor                8.0000000000E+00      1.2500000000E+00      8.0000000000E+01       pilotpt               1.0000000000E+00      0.0000000000E+00      1
hkpp15                 log                    factor                8.0000000000E+00      1.2500000000E+00      8.0000000000E+01       pilotpt               1.0000000000E+00      0.0000000000E+00      1
hkpp16                 log                    factor                8.0000000000E+00      1.2500000000E+00      8.0000000000E+01       pilotpt               1.0000000000E+00      0.0000000000E+00      1
hkpp17                 log                    factor                8.0000000000E+00      1.2500000000E+00      8.0000000000E+01       pilotpt               1.0000000000E+00      0.0000000000E+00      1
hkpp18                 log                    factor                8.0000000000E+00      1.2500000000E+00      8.0000000000E+01       pilotpt               1.0000000000E+00      0.0000000000E+00      1
hkpp19                 log                    factor                8.0000000000E+00      1.2500000000E+00      8.0000000000E+01       pilotpt               1.0000000000E+00      0.0000000000E+00      1
hkpp20                 log                    factor                8.0000000000E+00      1.2500000000E+00      8.0000000000E+01       pilotpt               1.0000000000E+00      0.0000000000E+00      1
hkpp21                 log                    factor                8.0000000000E+00      1.2500000000E+00      8.0000000000E+01       pilotpt               1.0000000000E+00      0.0000000000E+00      1
hkpp22                 log                    factor                8.0000000000E+00      1.2500000000E+00      8.0000000000E+01       pilotpt               1.0000000000E+00      0.0000000000E+00      1
hkpp23                 log                    factor                8.0000000000E+00      1.2500000000E+00      8.0000000000E+01       pilotpt               1.0000000000E+00      0.0000000000E+00      1
hkpp24                 log                    factor                8.0000000000E+00      1.2500000000E+00      8.0000000000E+01       pilotpt               1.0000000000E+00      0.0000000000E+00      1
hkpp25                 log                    factor                8.0000000000E+00      1.2500000000E+00      8.0000000000E+01       pilotpt               1.0000000000E+00      0.0000000000E+00      1
hkpp26                 log                    factor                8.0000000000E+00      1.2500000000E+00      8.0000000000E+01       pilotpt               1.0000000000E+00      0.0000000000E+00      1
hkpp27                 log                    factor                8.0000000000E+00      1.2500000000E+00      8.0000000000E+01       pilotpt               1.0000000000E+00      0.0000000000E+00      1
hkpp28                 log                    factor                8.0000000000E+00      1.2500000000E+00      8.0000000000E+01       pilotpt               1.0000000000E+00      0.0000000000E+00      1
hkpp29                 log                    factor                8.0000000000E+00      1.2500000000E+00      8.0000000000E+01       pilotpt               1.0000000000E+00      0.0000000000E+00      1
hkpp30                 log                    factor                8.0000000000E+00      1.2500000000E+00      8.0000000000E+01       pilotpt               1.0000000000E+00      0.0000000000E+00      1
hkpp31                 log                    factor                8.0000000000E+00      1.2500000000E+00      8.0000000000E+01       pilotpt               1.0000000000E+00      0.0000000000E+00      1
hkpp32                 log                    factor                8.0000000000E+00      1.2500000000E+00      8.0000000000E+01       pilotpt               1.0000000000E+00      0.0000000000E+00      1
hkpp33                 log                    factor                8.0000000000E+00      1.2500000000E+00      8.0000000000E+01       pilotpt               1.0000000000E+00      0.0000000000E+00      1
hkpp34                 log                    factor                8.0000000000E+00      1.2500000000E+00      8.0000000000E+01       pilotpt               1.0000000000E+00      0.0000000000E+00      1
hkpp35                 log                    factor                8.0000000000E+00      1.2500000000E+00      8.0000000000E+01       pilotpt               1.0000000000E+00      0.0000000000E+00      1
hkpp36                 log                    factor                8.0000000000E+00      1.2500000000E+00      8.0000000000E+01       pilotpt               1.0000000000E+00      0.0000000000E+00      1
hkpp37                 log                    factor                8.0000000000E+00      1.2500000000E+00      8.0000000000E+01       pilotpt               1.0000000000E+00      0.0000000000E+00      1
hkpp38                 log                    factor                8.0000000000E+00      1.2500000000E+00      8.0000000000E+01       pilotpt               1.0000000000E+00      0.0000000000E+00      1
hkpp39                 log                    factor                8.0000000000E+00      1.2500000000E+00      8.0000000000E+01       pilotpt               1.0000000000E+00      0.0000000000E+00      1
hkpp40                 log                    factor                8.0000000000E+00      1.2500000000E+00      8.0000000000E+01       pilotpt               1.0000000000E+00      0.0000000000E+00      1
hkpp41                 log                    factor                8.0000000000E+00      1.2500000000E+00      8.0000000000E+01       pilotpt               1.0000000000E+00      0.0000000000E+00      1
hkpp42                 log                    factor                8.0000000000E+00      1.2500000000E+00      8.0000000000E+01       pilotpt               1.0000000000E+00      0.0000000000E+00      1
hkpp43                 log                    factor                8.0000000000E+00      1.2500000000E+00      8.0000000000E+01       pilotpt               1.0000000000E+00      0.0000000000E+00      1
hkpp44                 log                    factor                8.0000000000E+00      1.2500000000E+00      8.0000000000E+01       pilotpt               1.0000000000E+00      0.0000000000E+00      1
hkpp45                 log                    factor                8.0000000000E+00      1.2500000000E+00      8.0000000000E+01       pilotpt               1.0000000000E+00      0.0000000000E+00      1
hkpp46                 log                    factor                8.0000000000E+00      1.2500000000E+00      8.0000000000E+01       pilotpt               1.0000000000E+00      0.0000000000E+00      1
hkpp47                 log                    factor                8.0000000000E+00      1.2500000000E+00      8.0000000000E+01       pilotpt               1.0000000000E+00      0.0000000000E+00      1
hkpp48                 log                    factor                8.0000000000E+00      1.2500000000E+00      8.0000000000E+01       pilotpt               1.0000000000E+00      0.0000000000E+00      1
hkpp49                 log                    factor                8.0000000000E+00      1.2500000000E+00      8.0000000000E+01       pilotpt               1.0000000000E+00      0.0000000000E+00      1
hkpp50                 log                    factor                8.0000000000E+00      1.2500000000E+00      8.0000000000E+01       pilotpt               1.0000000000E+00      0.0000000000E+00      1
hkpp51                 log                    factor                8.0000000000E+00      1.2500000000E+00      8.0000000000E+01       pilotpt               1.0000000000E+00      0.0000000000E+00      1
hkpp52                 log                    factor                8.0000000000E+00      1.2500000000E+00      8.0000000000E+01       pilotpt               1.0000000000E+00      0.0000000000E+00      1
hkpp53                 log                    factor                8.0000000000E+00      1.2500000000E+00      8.0000000000E+01       pilotpt               1.0000000000E+00      0.0000000000E+00      1
hkpp54                 log                    factor                8.0000000000E+00      1.2500000000E+00      8.0000000000E+01       pilotpt               1.0000000000E+00      0.0000000000E+00      1
hkpp55                 log                    factor                8.0000000000E+00      1.2500000000E+00      8.0000000000E+01       pilotpt               1.0000000000E+00      0.0000000000E+00      1
hkpp56                 log                    factor                8.0000000000E+00      1.2500000000E+00      8.0000000000E+01       pilotpt               1.0000000000E+00      0.0000000000E+00      1
hkpp57                 log                    factor                8.0000000000E+00      1.2500000000E+00      8.0000000000E+01       pilotpt               1.0000000000E+00      0.0000000000E+00      1
hkpp58                 log                    factor                8.0000000000E+00      1.2500000000E+00      8.0000000000E+01       pilotpt               1.0000000000E+00      0.0000000000E+00      1
hkpp59                 log                    factor                8.0000000000E+00      1.2500000000E+00      8.0000000000E+01       pilotpt               1.0000000000E+00      0.0000000000E+00      1
hkpp60                 log                    factor                8.0000000000E+00      1.2500000000E+00      8.0000000000E+01       pilotpt               1.0000000000E+00      0.0000000000E+00      1
hkpp61                 log                    factor                8.0000000000E+00      1.2500000000E+00      8.0000000000E+01       pilotpt               1.0000000000E+00      0.0000000000E+00      1
hkpp62                 log                    factor                8.0000000000E+00      1.2500000000E+00      8.0000000000E+01       pilotpt               1.0000000000E+00      0.0000000000E+00      1
hkpp63                 log                    factor                8.0000000000E+00      1.2500000000E+00      8.0000000000E+01       pilotpt               1.0000000000E+00      0.0000000000E+00      1
hkpp64                 log                    factor                8.0000000000E+00      1.2500000000E+00      8.0000000000E+01       pilotpt               1.0000000000E+00      0.0000000000E+00      1
hkpp65                 log                    factor                8.0000000000E+00      1.2500000000E+00      8.0000000000E+01       pilotpt               1.0000000000E+00      0.0000000000E+00      1
hkpp66                 log                    factor                8.0000000000E+00      1.2500000000E+00      8.0000000000E+01       pilotpt               1.0000000000E+00      0.0000000000E+00      1
hkpp67                 log                    factor                8.0000000000E+00      1.2500000000E+00      8.0000000000E+01       pilotpt               1.0000000000E+00      0.0000000000E+00      1
hkpp68                 log                    factor                8.0000000000E+00      1.2500000000E+00      8.0000000000E+01       pilotpt               1.0000000000E+00      0.0000000000E+00      1
hkpp69                 log                    factor                8.0000000000E+00      1.2500000000E+00      8.0000000000E+01       pilotpt               1.0000000000E+00      0.0000000000E+00      1
hkpp70                 log                    factor                8.0000000000E+00      1.2500000000E+00      8.0000000000E+01       pilotpt               1.0000000000E+00      0.0000000000E+00      1
* observation groups
flux_cal
head_fore
flux_fore
travel_fore
head_cal
* observation data
cr03c16               2.2186720000E+01      1.0000000000E+00       head_cal
cr03c10               2.4085910000E+01      1.0000000000E+00       head_cal
cr04c9                2.2333390000E+01      1.0000000000E+00       head_cal
cr10c2                3.1834300000E+01      1.0000000000E+00       head_cal
cr14c11               1.7728410000E+01      1.0000000000E+00       head_cal
cr16c17               1.6566480000E+01      1.0000000000E+00       head_cal
cr22c11               1.8285940000E+01      1.0000000000E+00       head_cal
cr23c16               1.5208200000E+01      1.0000000000E+00       head_cal
cr25c5                2.4242940000E+01      1.0000000000E+00       head_cal
cr27c7                2.2748900000E+01      1.0000000000E+00       head_cal
cr30c16               1.4736170000E+01      1.0000000000E+00       head_cal
cr34c8                1.8619890000E+01      1.0000000000E+00       head_cal
cr35c11               1.5619960000E+01      1.0000000000E+00       head_cal
rivflux_cal           -9.9999900000E+05     1.0000000000E-02       flux_cal             
fr03c16               -9.9999900000E+05     0.0000000000E+00       head_fore
fr03c10               -9.9999900000E+05     0.0000000000E+00       head_fore
fr04c9                -9.9999900000E+05     0.0000000000E+00       head_fore
fr10c2                -9.9999900000E+05     0.0000000000E+00       head_fore
fr14c11               -9.9999900000E+05     0.0000000000E+00       head_fore
fr16c17               -9.9999900000E+05     0.0000000000E+00       head_fore
fr22c11               -9.9999900000E+05     0.0000000000E+00       head_fore
fr23c16               -9.9999900000E+05     0.0000000000E+00       head_fore
fr25c5                -9.9999900000E+05     0.0000000000E+00       head_fore
fr27c7                -9.9999900000E+05     0.0000000000E+00       head_fore
fr30c16               -9.9999900000E+05     0.0000000000E+00       head_fore
fr34c8                -9.9999900000E+05     0.0000000000E+00       head_fore
fr35c11               -9.9999900000E+05     0.0000000000E+00       head_fore
fr02c02               -9.9999900000E+05     0.0000000000E+00       head_fore
fr01c13               -9.9999900000E+05     0.0000000000E+00       head_fore
fr09c15               -9.9999900000E+05     0.0000000000E+00       head_fore
fr25c10               -9.9999900000E+05     0.0000000000E+00       head_fore
rivflux_fore          -9.9999900000E+05     0.0000000000E+00       flux_fore
travel_time           -9.9999900000E+05     0.0000000000E+00       travel_fore
* model command line
python run_model_pp.py
* model input/output
points1.dat.tpl points1.dat
freyberg.rch.tpl freyberg.rch
freyberg.heads.ins freyberg.heads
freyberg.rivflux.ins freyberg.rivflux
freyberg.travel.ins freyberg.travel
++forecasts(rivflux_cal,rivflux_fore,travel_time,fr03c16,fr04c9)
