# File generated by Flopy version 3.4.2 on 04/27/2024 at 08:12:37.
BEGIN options
  TIME_UNITS  days
  START_DATE_TIME  01-01-1940
END options

BEGIN dimensions
  NPER  1
END dimensions

BEGIN perioddata
       1.00000000  1       1.00000000
END perioddata

