# File generated by Flopy version 3.4.2 on 04/27/2024 at 08:12:37.
BEGIN options
  SAVE_FLOWS
  NEWTON  UNDER_RELAXATION
END options

BEGIN packages
  DIS6  hpm_mf6.dis  dis
  IC6  hpm_mf6.ic  ic
  SFR6  hpm_mf6.sfr  sfr_0
  WEL6  hpm_mf6.wel  wel_0
  NPF6  hpm_mf6.npf  npf
  OC6  hpm_mf6.oc  oc
  RCH6  hpm_mf6.rcha  rcha_0
  GHB6  hpm_mf6_coast.ghb  ghb_0
  GHB6  hpm_mf6_bound.ghb  ghb_1
  DRN6  hpm_mf6.drn  drn_0
  MVR6  hpm_mf6.mvr  mvr
  OBS6  hpm_mf6.obs  obs_4
END packages

