# File generated by Flopy version 3.4.2 on 04/27/2024 at 08:12:37.
BEGIN options
  LENGTH_UNITS  meters
  XORIGIN  1.89146000E+06
  YORIGIN  5.59440000E+06
END options

BEGIN dimensions
  NLAY  9
  NROW  302
  NCOL  501
END dimensions

BEGIN griddata
  delr
    OPEN/CLOSE  'hpm_mf6.dis_delr.txt'  FACTOR  1.0
  delc
    OPEN/CLOSE  'hpm_mf6.dis_delc.txt'  FACTOR  1.0
  top
    OPEN/CLOSE  '..\shared_props\top.txt'  FACTOR  1.0
  botm  LAYERED
    OPEN/CLOSE  '..\shared_props\botm_0.txt'  FACTOR  1.0
    OPEN/CLOSE  '..\shared_props\botm_1.txt'  FACTOR  1.0
    OPEN/CLOSE  '..\shared_props\botm_2.txt'  FACTOR  1.0
    OPEN/CLOSE  '..\shared_props\botm_3.txt'  FACTOR  1.0
    OPEN/CLOSE  '..\shared_props\botm_4.txt'  FACTOR  1.0
    OPEN/CLOSE  '..\shared_props\botm_5.txt'  FACTOR  1.0
    OPEN/CLOSE  '..\shared_props\botm_6.txt'  FACTOR  1.0
    OPEN/CLOSE  '..\shared_props\botm_7.txt'  FACTOR  1.0
    OPEN/CLOSE  '..\shared_props\botm_8.txt'  FACTOR  1.0
  idomain  LAYERED
    OPEN/CLOSE  '..\shared_props\idomain_0.txt'  FACTOR  1
    OPEN/CLOSE  '..\shared_props\idomain_1.txt'  FACTOR  1
    OPEN/CLOSE  '..\shared_props\idomain_2.txt'  FACTOR  1
    OPEN/CLOSE  '..\shared_props\idomain_3.txt'  FACTOR  1
    OPEN/CLOSE  '..\shared_props\idomain_4.txt'  FACTOR  1
    OPEN/CLOSE  '..\shared_props\idomain_5.txt'  FACTOR  1
    OPEN/CLOSE  '..\shared_props\idomain_6.txt'  FACTOR  1
    OPEN/CLOSE  '..\shared_props\idomain_7.txt'  FACTOR  1
    OPEN/CLOSE  '..\shared_props\idomain_8.txt'  FACTOR  1
END griddata

