# File generated by Flopy version 3.4.2 on 04/27/2024 at 08:12:37.
BEGIN options
END options

BEGIN timing
  TDIS6  hpm_mf6.tdis
END timing

BEGIN models
  gwf6  hpm_mf6.nam  hpm_mf6
END models

BEGIN exchanges
END exchanges

BEGIN solutiongroup  1
  ims6  hpm_mf6.ims  hpm_mf6
END solutiongroup  1

