BEGIN Options
  TIME_UNITS  days
END Options

BEGIN Dimensions
  NPER  1
END Dimensions

BEGIN PERIODDATA
      31.00000000  1       1.00000000  PERLEN NSTP TSMULT
END PERIODDATA

