# RIV for MODFLOW, generated by Flopy.
        40         0
        40         0 # stress period 0
         1         1        15 20.100000 2513.4428 20.000000  0.000000
         1         2        15 19.870001 6920.6940 19.750000  0.000000
         1         3        15 19.650000 3621.9987 19.500000  0.000000
         1         4        15 19.420000 2381.8445 19.250000  0.000000
         1         5        15 19.190001 751.03282 19.000000  0.000000
         1         6        15 18.969999 9749.9247 18.750000  0.000000
         1         7        15 18.740000 11686.707 18.500000  0.000000
         1         8        15 18.510000 2115.1638 18.250000  0.000000
         1         9        15 18.280001 6217.1924 18.000000  0.000000
         1        10        15 19.059999 637.77180 17.750000  0.000000
         1        11        15 17.830000 2210.0735 17.500000  0.000000
         1        12        15 17.600000 1501.3971 17.250000  0.000000
         1        13        15 17.379999 17023.764 17.000000  0.000000
         1        14        15 17.150000 8459.7704 16.750000  0.000000
         1        15        15 16.920000 1354.5802 16.500000  0.000000
         1        16        15 16.700001 28181.219 16.250000  0.000000
         1        17        15 16.469999 33426.544 16.000000  0.000000
         1        18        15 16.240000 100182.94 15.750000  0.000000
         1        19        15 16.020000 2836.2781 15.500000  0.000000
         1        20        15 15.790000 1700.5744 15.250000  0.000000
         1        21        15 15.560000 23684.877 15.000000  0.000000
         1        22        15 15.330000 1997.9687 14.750000  0.000000
         1        23        15 15.110000 2942.9819 14.500000  0.000000
         1        24        15 14.880000 10637.728 14.250000  0.000000
         1        25        15 14.650000 14796.196 14.000000  0.000000
         1        26        15 14.430000 2099.9680 13.750000  0.000000
         1        27        15 14.200000 4858.8566 13.500000  0.000000
         1        28        15 13.970000 10654.819 13.250000  0.000000
         1        29        15 13.750000 15168.162 13.000000  0.000000
         1        30        15 13.520000 4736.9107 12.750000  0.000000
         1        31        15 13.290000 7034.5658 12.500000  0.000000
         1        32        15 13.070000 20465.956 12.250000  0.000000
         1        33        15 12.840000 2464.9962 12.000000  0.000000
         1        34        15 12.610000 7240.9719 11.750000  0.000000
         1        35        15 12.380000 20664.463 11.500000  0.000000
         1        36        15 12.160000 462.02302 11.250000  0.000000
         1        37        15 11.930000 1490.6836 11.000000  0.000000
         1        38        15 11.700000 890.15100 10.750000  0.000000
         1        39        15 11.480000 29346.132 10.500000  0.000000
         1        40        15 11.250000 5644.5913 10.250000  0.000000
        -1         0 # stress period 1
        -1         0 # stress period 2
