# Well file for MODFLOW, generated by Flopy.
         6         0
         6         0 # stress period 0
         1         9        16  95.11813736  0.000000
         1        11        13  102.1797400  0.000000
         1        20        14  100.0285594  0.000000
         1        26        10  111.2244640  0.000000
         1        29         6  100.7346487  0.000000
         1        34        12  96.55681916  0.000000
         6         0 # stress period 1
         1         9        16  68.98626799  0.000000
         1        11        13  131.3421522  0.000000
         1        20        14  90.76982438  0.000000
         1        26        10  94.21835305  0.000000
         1        29         6  62.75829456  0.000000
         1        34        12  101.4273867  0.000000
         6         0 # stress period 2
         1         9        16  68.98626799  0.000000
         1        11        13  131.3421522  0.000000
         1        20        14  90.76982438  0.000000
         1        26        10  94.21835305  0.000000
         1        29         6  62.75829456  0.000000
         1        34        12  101.4273867  0.000000
