# Well file for MODFLOW, generated by Flopy.
         6         0
         6         0 # stress period 0
         1         9        16  100.0232338  0.000000
         1        11        13  107.5654226  0.000000
         1        20        14  108.4135858  0.000000
         1        26        10  92.58630741  0.000000
         1        29         6  96.29103173  0.000000
         1        34        12  101.9306069  0.000000
         6         0 # stress period 1
         1         9        16  121.2565323  0.000000
         1        11        13  81.42233700  0.000000
         1        20        14  91.92336645  0.000000
         1        26        10  153.0460418  0.000000
         1        29         6  89.25589870  0.000000
         1        34        12  94.59353360  0.000000
         6         0 # stress period 2
         1         9        16  121.2565323  0.000000
         1        11        13  81.42233700  0.000000
         1        20        14  91.92336645  0.000000
         1        26        10  153.0460418  0.000000
         1        29         6  89.25589870  0.000000
         1        34        12  94.59353360  0.000000
