# RIV for MODFLOW, generated by Flopy.
        40         0
        40         0 # stress period 0
         1         1        15 20.100000 6061.9721 20.000000  0.000000
         1         2        15 19.870001 1645.7601 19.750000  0.000000
         1         3        15 19.650000 7571.4968 19.500000  0.000000
         1         4        15 19.420000 14004.719 19.250000  0.000000
         1         5        15 19.190001 1131.4028 19.000000  0.000000
         1         6        15 18.969999 3038.3224 18.750000  0.000000
         1         7        15 18.740000 4350.3651 18.500000  0.000000
         1         8        15 18.510000 639.30398 18.250000  0.000000
         1         9        15 18.280001 7539.2989 18.000000  0.000000
         1        10        15 19.059999 9056.1381 17.750000  0.000000
         1        11        15 17.830000 5832.0416 17.500000  0.000000
         1        12        15 17.600000 1428.5002 17.250000  0.000000
         1        13        15 17.379999 975.74895 17.000000  0.000000
         1        14        15 17.150000 5370.7073 16.750000  0.000000
         1        15        15 16.920000 17146.449 16.500000  0.000000
         1        16        15 16.700001 3854.5635 16.250000  0.000000
         1        17        15 16.469999 10971.936 16.000000  0.000000
         1        18        15 16.240000 8739.5092 15.750000  0.000000
         1        19        15 16.020000 3285.1972 15.500000  0.000000
         1        20        15 15.790000 786.39281 15.250000  0.000000
         1        21        15 15.560000 7089.7822 15.000000  0.000000
         1        22        15 15.330000 6192.7212 14.750000  0.000000
         1        23        15 15.110000 1208.8463 14.500000  0.000000
         1        24        15 14.880000 691.65585 14.250000  0.000000
         1        25        15 14.650000 37036.813 14.000000  0.000000
         1        26        15 14.430000 318.09650 13.750000  0.000000
         1        27        15 14.200000 4204.5434 13.500000  0.000000
         1        28        15 13.970000 2801.5776 13.250000  0.000000
         1        29        15 13.750000 1817.6833 13.000000  0.000000
         1        30        15 13.520000 5350.2687 12.750000  0.000000
         1        31        15 13.290000 862.33538 12.500000  0.000000
         1        32        15 13.070000 2615.4550 12.250000  0.000000
         1        33        15 12.840000 1968.6503 12.000000  0.000000
         1        34        15 12.610000 3764.9048 11.750000  0.000000
         1        35        15 12.380000 24813.310 11.500000  0.000000
         1        36        15 12.160000 3449.8686 11.250000  0.000000
         1        37        15 11.930000 1251.3022 11.000000  0.000000
         1        38        15 11.700000 497.95043 10.750000  0.000000
         1        39        15 11.480000 1550.6833 10.500000  0.000000
         1        40        15 11.250000 5126.9478 10.250000  0.000000
        -1         0 # stress period 1
        -1         0 # stress period 2
