MODPATH_PATHLINE_FILE 6 0                                                       
 1   0.000000000000000E+00
END HEADER
         1     1    -1     2   0.182600000000000E+04   0.625000000000000E+03   0.637500000000000E+04   0.350000000000000E+02    1   15    3  1  0.5000000E+00   0.5000000E+00   0.1000000E+01     1
         1     1    -1     3   0.182600000000000E+04   0.625000000000000E+03   0.637500000000000E+04   0.350000000000000E+02    1   15    3  1  0.5000000E+00   0.5000000E+00   0.1000000E+01     2
         1     1    -1     3   0.232972672560858E+04   0.638154139125504E+03   0.625000000000000E+04   0.349754090000000E+02    1   16    3  1  0.5526166E+00   0.1000000E+01   0.9990000E+00     2
         1     1    -1     3   0.313291407239257E+04   0.650475780728409E+03   0.600000000000000E+04   0.349742241000000E+02    1   17    3  1  0.6019031E+00   0.1000000E+01   0.9990000E+00     2
         1     1    -1     3   0.378550756880662E+04   0.641503685829767E+03   0.575000000000000E+04   0.349719156000000E+02    1   18    3  1  0.5660147E+00   0.1000000E+01   0.9990000E+00     2
         1     1    -1     3   0.434643935346287E+04   0.644498568899908E+03   0.550000000000000E+04   0.349710632000000E+02    1   19    3  1  0.5779943E+00   0.1000000E+01   0.9990000E+00     2
         1     1    -1     3   0.481384025315360E+04   0.654251481338498E+03   0.525000000000000E+04   0.349689943000000E+02    1   20    3  1  0.6170059E+00   0.1000000E+01   0.9990000E+00     2
         1     1    -1     3   0.524597690465756E+04   0.673704211838814E+03   0.500000000000000E+04   0.349728784000000E+02    1   21    3  1  0.6948168E+00   0.1000000E+01   0.9990000E+00     2
         1     1    -1     3   0.559569503150457E+04   0.707044631680338E+03   0.475000000000000E+04   0.349697303000000E+02    1   22    3  1  0.8281785E+00   0.1000000E+01   0.9990000E+00     2
         1     1    -1     3   0.592818618262418E+04   0.750000000000000E+03   0.452538683886812E+04   0.349732807000000E+02    1   22    4  1  0.0000000E+00   0.1015474E+00   0.9990000E+00     2
         1     1    -1     3   0.595244930781189E+04   0.753532549487045E+03   0.450000000000000E+04   0.349736354000000E+02    1   23    4  1  0.1413020E-01   0.1000000E+01   0.9990000E+00     2
         1     1    -1     3   0.623635013652419E+04   0.887537582519018E+03   0.425000000000000E+04   0.349743852000000E+02    1   24    4  1  0.5501503E+00   0.1000000E+01   0.9990000E+00     2
         1     1    -1     3   0.641313291411198E+04   0.100000000000000E+04   0.413153787943793E+04   0.349760120000000E+02    1   24    5  1  0.0000000E+00   0.5261515E+00   0.9990000E+00     2
         1     1    -1     3   0.661679883894383E+04   0.118805754574603E+04   0.400000000000000E+04   0.349761070000000E+02    1   25    5  1  0.7522302E+00   0.1000000E+01   0.9990000E+00     2
         1     1    -1     3   0.669589081533550E+04   0.125000000000000E+04   0.395734952759964E+04   0.349702416000000E+02    1   25    6  1  0.0000000E+00   0.8293981E+00   0.9990000E+00     2
         1     1    -1     3   0.704947646080267E+04   0.150000000000000E+04   0.387659487440355E+04   0.349707991000000E+02    1   25    7  1  0.0000000E+00   0.5063795E+00   0.9990000E+00     2
         1     1    -1     3   0.738434091588246E+04   0.175000000000000E+04   0.386705168259452E+04   0.349706034000000E+02    1   25    8  1  0.0000000E+00   0.4682067E+00   0.9990000E+00     2
         1     1    -1     3   0.776979889876306E+04   0.200000000000000E+04   0.386930924934561E+04   0.349717668000000E+02    1   25    9  1  0.0000000E+00   0.4772370E+00   0.9990000E+00     2
         1     1    -1     3   0.817755715308851E+04   0.225000000000000E+04   0.384049667189449E+04   0.349667813000000E+02    1   25   10  1  0.0000000E+00   0.3619867E+00   0.9990000E+00     2
         1     1    -1     3   0.850616554682068E+04   0.241096599103198E+04   0.375000000000000E+04   0.349677051000000E+02    1   26   10  1  0.6438640E+00   0.1000000E+01   0.9990000E+00     2
         1     1    -1     3   0.874258036209588E+04   0.250000000000000E+04   0.369184943765476E+04   0.349654493500000E+02    1   26   11  1  0.0000000E+00   0.7673978E+00   0.9990000E+00     2
         1     1    -1     3   0.949885033944593E+04   0.275000000000000E+04   0.361915847606138E+04   0.349656372500000E+02    1   26   12  1  0.0000000E+00   0.4766339E+00   0.9990000E+00     2
         1     1    -1     3   0.101103368146924E+05   0.300000000000000E+04   0.351537993154092E+04   0.349655441700000E+02    1   26   13  1  0.0000000E+00   0.6151973E-01   0.9990000E+00     2
         1     1    -1     3   0.102543990996955E+05   0.306053768565237E+04   0.350000000000000E+04   0.349654242700000E+02    1   27   13  1  0.2421507E+00   0.1000000E+01   0.9990000E+00     2
         1     1    -1     3   0.107667960826765E+05   0.325000000000000E+04   0.344361969897743E+04   0.349654677500000E+02    1   27   14  1  0.0000000E+00   0.7744788E+00   0.9990000E+00     2
         1     1    -1     3   0.114033651722729E+05   0.350000000000000E+04   0.335767263056591E+04   0.349653847600000E+02    1   27   15  1  0.0000000E+00   0.4306905E+00   0.9990000E+00     2
         1     1    -1     3   0.120370445734469E+05   0.362001732691412E+04   0.325000000000000E+04   0.349652102900000E+02    1   28   15  1  0.4800693E+00   0.1000000E+01   0.9990000E+00     2
         1     1    -1     3   0.135447572454449E+05   0.363856342994563E+04   0.300000000000000E+04   0.349656895600000E+02    1   29   15  1  0.5542537E+00   0.1000000E+01   0.9990000E+00     2
         1     1    -1     3   0.150821442553794E+05   0.364921724459912E+04   0.275000000000000E+04   0.349650139450000E+02    1   30   15  1  0.5968690E+00   0.1000000E+01   0.9990000E+00     2
         1     1    -1     3   0.168742651218576E+05   0.364226181648493E+04   0.250000000000000E+04   0.349654124600000E+02    1   31   15  1  0.5690473E+00   0.1000000E+01   0.9990000E+00     2
         1     1    -1     3   0.194930743828330E+05   0.364716735177004E+04   0.225000000000000E+04   0.349655694900000E+02    1   32   15  1  0.5886694E+00   0.1000000E+01   0.9990000E+00     2
         1     1    -1     3   0.228804109101288E+05   0.361466726824758E+04   0.200000000000000E+04   0.349657109100000E+02    1   33   15  1  0.4586691E+00   0.1000000E+01   0.9990000E+00     2
         1     1    -1     3   0.253038892628385E+05   0.351503661391395E+04   0.175000000000000E+04   0.349656923200000E+02    1   34   15  1  0.6014646E-01   0.1000000E+01   0.9990000E+00     2
         1     1    -1     3   0.254222381075062E+05   0.350000000000000E+04   0.173437423005683E+04   0.349653331100000E+02    1   34   14  1  0.1000000E+01   0.9374969E+00   0.9990000E+00     2
         1     1    -1     3   0.264401175283154E+05   0.325000000000000E+04   0.155008391105985E+04   0.349652656100000E+02    1   34   13  1  0.1000000E+01   0.2003356E+00   0.9990000E+00     2
         1     1    -1     3   0.267905375178915E+05   0.300000000000000E+04   0.158466140681015E+04   0.349656600500000E+02    1   34   12  1  0.1000000E+01   0.3386456E+00   0.9990000E+00     2
         1     1    -1     3   0.267905375178915E+05   0.300000000000000E+04   0.158466140681015E+04   0.349656600500000E+02    1   34   12  1  0.1000000E+01   0.3386456E+00   0.9990000E+00     2
