# Well file for MODFLOW, generated by Flopy.
         6         0
         6         0 # stress period 0
         1         9        16  105.1070247  0.000000
         1        11        13  104.5481584  0.000000
         1        20        14  97.81172237  0.000000
         1        26        10  99.35564034  0.000000
         1        29         6  98.29647422  0.000000
         1        34        12  92.05860670  0.000000
         6         0 # stress period 1
         1         9        16  102.1739198  0.000000
         1        11        13  138.1666709  0.000000
         1        20        14  122.7598587  0.000000
         1        26        10  82.97351950  0.000000
         1        29         6  91.45514494  0.000000
         1        34        12  96.53744697  0.000000
         6         0 # stress period 2
         1         9        16  102.1739198  0.000000
         1        11        13  138.1666709  0.000000
         1        20        14  122.7598587  0.000000
         1        26        10  82.97351950  0.000000
         1        29         6  91.45514494  0.000000
         1        34        12  96.53744697  0.000000
