# RIV for MODFLOW, generated by Flopy.
        40         0
        40         0 # stress period 0
         1         1        15 20.100000 5088.0385 20.000000  0.000000
         1         2        15 19.870001 1865.9593 19.750000  0.000000
         1         3        15 19.650000 1427.2958 19.500000  0.000000
         1         4        15 19.420000 11544.082 19.250000  0.000000
         1         5        15 19.190001 5153.1462 19.000000  0.000000
         1         6        15 18.969999 15606.155 18.750000  0.000000
         1         7        15 18.740000 13414.027 18.500000  0.000000
         1         8        15 18.510000 8445.8736 18.250000  0.000000
         1         9        15 18.280001 1473.2690 18.000000  0.000000
         1        10        15 19.059999 9862.3846 17.750000  0.000000
         1        11        15 17.830000 8198.5273 17.500000  0.000000
         1        12        15 17.600000 8874.1707 17.250000  0.000000
         1        13        15 17.379999 760.47097 17.000000  0.000000
         1        14        15 17.150000 18836.578 16.750000  0.000000
         1        15        15 16.920000 17316.560 16.500000  0.000000
         1        16        15 16.700001 36271.392 16.250000  0.000000
         1        17        15 16.469999 4833.6241 16.000000  0.000000
         1        18        15 16.240000 10639.480 15.750000  0.000000
         1        19        15 16.020000 9742.1678 15.500000  0.000000
         1        20        15 15.790000 3301.8786 15.250000  0.000000
         1        21        15 15.560000 4192.8567 15.000000  0.000000
         1        22        15 15.330000 10654.088 14.750000  0.000000
         1        23        15 15.110000 6920.6210 14.500000  0.000000
         1        24        15 14.880000 4291.7807 14.250000  0.000000
         1        25        15 14.650000 690.67126 14.000000  0.000000
         1        26        15 14.430000 4579.0202 13.750000  0.000000
         1        27        15 14.200000 29870.371 13.500000  0.000000
         1        28        15 13.970000 9186.9593 13.250000  0.000000
         1        29        15 13.750000 19123.685 13.000000  0.000000
         1        30        15 13.520000 4356.4077 12.750000  0.000000
         1        31        15 13.290000 86.267429 12.500000  0.000000
         1        32        15 13.070000 899.15658 12.250000  0.000000
         1        33        15 12.840000 2943.2063 12.000000  0.000000
         1        34        15 12.610000 11302.454 11.750000  0.000000
         1        35        15 12.380000 2441.3822 11.500000  0.000000
         1        36        15 12.160000 633.19345 11.250000  0.000000
         1        37        15 11.930000 5843.3523 11.000000  0.000000
         1        38        15 11.700000 969.78709 10.750000  0.000000
         1        39        15 11.480000 8371.9378 10.500000  0.000000
         1        40        15 11.250000 5199.2874 10.250000  0.000000
        -1         0 # stress period 1
        -1         0 # stress period 2
