# Well file for MODFLOW, generated by Flopy.
         6         0
         6         0 # stress period 0
         1         9        16  98.07235949  0.000000
         1        11        13  100.4222333  0.000000
         1        20        14  97.64155452  0.000000
         1        26        10  95.40840699  0.000000
         1        29         6  89.40661673  0.000000
         1        34        12  103.2882885  0.000000
         6         0 # stress period 1
         1         9        16  100.6820246  0.000000
         1        11        13  146.0176714  0.000000
         1        20        14  63.86434760  0.000000
         1        26        10  96.87932562  0.000000
         1        29         6  60.74993078  0.000000
         1        34        12  99.61935513  0.000000
         6         0 # stress period 2
         1         9        16  100.6820246  0.000000
         1        11        13  146.0176714  0.000000
         1        20        14  63.86434760  0.000000
         1        26        10  96.87932562  0.000000
         1        29         6  60.74993078  0.000000
         1        34        12  99.61935513  0.000000
