# RIV for MODFLOW, generated by Flopy.
        40         0
        40         0 # stress period 0
         1         1        15 20.100000 1246.2739 20.000000  0.000000
         1         2        15 19.870001 2413.1309 19.750000  0.000000
         1         3        15 19.650000 6069.3465 19.500000  0.000000
         1         4        15 19.420000 413.94134 19.250000  0.000000
         1         5        15 19.190001 7243.3849 19.000000  0.000000
         1         6        15 18.969999 15808.283 18.750000  0.000000
         1         7        15 18.740000 14362.105 18.500000  0.000000
         1         8        15 18.510000 574.48952 18.250000  0.000000
         1         9        15 18.280001 7955.0619 18.000000  0.000000
         1        10        15 19.059999 17941.374 17.750000  0.000000
         1        11        15 17.830000 8427.0375 17.500000  0.000000
         1        12        15 17.600000 5107.7377 17.250000  0.000000
         1        13        15 17.379999 15943.802 17.000000  0.000000
         1        14        15 17.150000 563.76953 16.750000  0.000000
         1        15        15 16.920000 23392.495 16.500000  0.000000
         1        16        15 16.700001 15262.995 16.250000  0.000000
         1        17        15 16.469999 4651.5311 16.000000  0.000000
         1        18        15 16.240000 3906.6012 15.750000  0.000000
         1        19        15 16.020000 2225.2737 15.500000  0.000000
         1        20        15 15.790000 4034.4417 15.250000  0.000000
         1        21        15 15.560000 1482.9909 15.000000  0.000000
         1        22        15 15.330000 17571.262 14.750000  0.000000
         1        23        15 15.110000 6111.1793 14.500000  0.000000
         1        24        15 14.880000 2656.5392 14.250000  0.000000
         1        25        15 14.650000 6473.8107 14.000000  0.000000
         1        26        15 14.430000 899.44844 13.750000  0.000000
         1        27        15 14.200000 1695.6855 13.500000  0.000000
         1        28        15 13.970000 1296.7028 13.250000  0.000000
         1        29        15 13.750000 2768.5440 13.000000  0.000000
         1        30        15 13.520000 21378.652 12.750000  0.000000
         1        31        15 13.290000 3794.8993 12.500000  0.000000
         1        32        15 13.070000 5153.0905 12.250000  0.000000
         1        33        15 12.840000 510.88691 12.000000  0.000000
         1        34        15 12.610000 1757.1833 11.750000  0.000000
         1        35        15 12.380000 10813.673 11.500000  0.000000
         1        36        15 12.160000 950.91080 11.250000  0.000000
         1        37        15 11.930000 1442.0018 11.000000  0.000000
         1        38        15 11.700000 2154.2478 10.750000  0.000000
         1        39        15 11.480000 3054.6701 10.500000  0.000000
         1        40        15 11.250000 1624.2391 10.250000  0.000000
        -1         0 # stress period 1
        -1         0 # stress period 2
