# Well file for MODFLOW, generated by Flopy.
         6         0
         6         0 # stress period 0
         1         9        16  99.99733187  0.000000
         1        11        13  99.41458248  0.000000
         1        20        14  97.52084419  0.000000
         1        26        10  90.43622533  0.000000
         1        29         6  95.77729738  0.000000
         1        34        12  103.8814869  0.000000
         6         0 # stress period 1
         1         9        16  119.4244004  0.000000
         1        11        13  86.13718022  0.000000
         1        20        14  101.1099189  0.000000
         1        26        10  133.0777599  0.000000
         1        29         6  139.7788942  0.000000
         1        34        12  113.2123515  0.000000
         6         0 # stress period 2
         1         9        16  119.4244004  0.000000
         1        11        13  86.13718022  0.000000
         1        20        14  101.1099189  0.000000
         1        26        10  133.0777599  0.000000
         1        29         6  139.7788942  0.000000
         1        34        12  113.2123515  0.000000
