# RIV for MODFLOW, generated by Flopy.
        40         0
        40         0 # stress period 0
         1         1        15 20.100000 3728.5553 20.000000  0.000000
         1         2        15 19.870001 1860.8059 19.750000  0.000000
         1         3        15 19.650000 4134.7688 19.500000  0.000000
         1         4        15 19.420000 23326.294 19.250000  0.000000
         1         5        15 19.190001 21747.147 19.000000  0.000000
         1         6        15 18.969999 6078.9244 18.750000  0.000000
         1         7        15 18.740000 2551.8889 18.500000  0.000000
         1         8        15 18.510000 43677.283 18.250000  0.000000
         1         9        15 18.280001 8771.5631 18.000000  0.000000
         1        10        15 19.059999 6825.1651 17.750000  0.000000
         1        11        15 17.830000 7981.9751 17.500000  0.000000
         1        12        15 17.600000 1263.2129 17.250000  0.000000
         1        13        15 17.379999 9330.9398 17.000000  0.000000
         1        14        15 17.150000 72314.561 16.750000  0.000000
         1        15        15 16.920000 9026.6882 16.500000  0.000000
         1        16        15 16.700001 5353.8658 16.250000  0.000000
         1        17        15 16.469999 5292.7440 16.000000  0.000000
         1        18        15 16.240000 4765.6567 15.750000  0.000000
         1        19        15 16.020000 544.41711 15.500000  0.000000
         1        20        15 15.790000 5689.0951 15.250000  0.000000
         1        21        15 15.560000 15882.363 15.000000  0.000000
         1        22        15 15.330000 7594.9025 14.750000  0.000000
         1        23        15 15.110000 1440.8606 14.500000  0.000000
         1        24        15 14.880000 8980.0760 14.250000  0.000000
         1        25        15 14.650000 2578.1480 14.000000  0.000000
         1        26        15 14.430000 1620.3627 13.750000  0.000000
         1        27        15 14.200000 6888.6614 13.500000  0.000000
         1        28        15 13.970000 4460.2984 13.250000  0.000000
         1        29        15 13.750000 1390.8331 13.000000  0.000000
         1        30        15 13.520000 5547.8280 12.750000  0.000000
         1        31        15 13.290000 5458.7520 12.500000  0.000000
         1        32        15 13.070000 14318.510 12.250000  0.000000
         1        33        15 12.840000 1277.1972 12.000000  0.000000
         1        34        15 12.610000 7573.9699 11.750000  0.000000
         1        35        15 12.380000 8917.0641 11.500000  0.000000
         1        36        15 12.160000 36256.834 11.250000  0.000000
         1        37        15 11.930000 5569.0527 11.000000  0.000000
         1        38        15 11.700000 5493.2243 10.750000  0.000000
         1        39        15 11.480000 1657.0291 10.500000  0.000000
         1        40        15 11.250000 3355.7332 10.250000  0.000000
        -1         0 # stress period 1
        -1         0 # stress period 2
