# RIV for MODFLOW, generated by Flopy.
        40         0
        40         0 # stress period 0
         1         1        15 20.100000 1735.7984 20.000000  0.000000
         1         2        15 19.870001 3041.4927 19.750000  0.000000
         1         3        15 19.650000 2746.4459 19.500000  0.000000
         1         4        15 19.420000 1880.3035 19.250000  0.000000
         1         5        15 19.190001 841.41127 19.000000  0.000000
         1         6        15 18.969999 12404.176 18.750000  0.000000
         1         7        15 18.740000 5657.9648 18.500000  0.000000
         1         8        15 18.510000 3756.1324 18.250000  0.000000
         1         9        15 18.280001 4908.4604 18.000000  0.000000
         1        10        15 19.059999 36347.581 17.750000  0.000000
         1        11        15 17.830000 7211.5737 17.500000  0.000000
         1        12        15 17.600000 9317.6269 17.250000  0.000000
         1        13        15 17.379999 5542.1692 17.000000  0.000000
         1        14        15 17.150000 14768.637 16.750000  0.000000
         1        15        15 16.920000 17683.809 16.500000  0.000000
         1        16        15 16.700001 2462.2314 16.250000  0.000000
         1        17        15 16.469999 10102.513 16.000000  0.000000
         1        18        15 16.240000 432.43359 15.750000  0.000000
         1        19        15 16.020000 53306.366 15.500000  0.000000
         1        20        15 15.790000 808.55429 15.250000  0.000000
         1        21        15 15.560000 4474.8829 15.000000  0.000000
         1        22        15 15.330000 32364.573 14.750000  0.000000
         1        23        15 15.110000 3774.5728 14.500000  0.000000
         1        24        15 14.880000 2844.8284 14.250000  0.000000
         1        25        15 14.650000 9274.5462 14.000000  0.000000
         1        26        15 14.430000 8250.6801 13.750000  0.000000
         1        27        15 14.200000 1707.9712 13.500000  0.000000
         1        28        15 13.970000 9358.1458 13.250000  0.000000
         1        29        15 13.750000 10676.658 13.000000  0.000000
         1        30        15 13.520000 1881.7404 12.750000  0.000000
         1        31        15 13.290000 8749.3559 12.500000  0.000000
         1        32        15 13.070000 1252.8722 12.250000  0.000000
         1        33        15 12.840000 2220.0939 12.000000  0.000000
         1        34        15 12.610000 6192.5184 11.750000  0.000000
         1        35        15 12.380000 38236.382 11.500000  0.000000
         1        36        15 12.160000 3955.2002 11.250000  0.000000
         1        37        15 11.930000 3162.6639 11.000000  0.000000
         1        38        15 11.700000 10306.005 10.750000  0.000000
         1        39        15 11.480000 13223.890 10.500000  0.000000
         1        40        15 11.250000 1260.2166 10.250000  0.000000
        -1         0 # stress period 1
        -1         0 # stress period 2
