# Well file for MODFLOW, generated by Flopy.
         6         0
         6         0 # stress period 0
         1         9        16  101.4425137  0.000000
         1        11        13  95.62044747  0.000000
         1        20        14  104.6850061  0.000000
         1        26        10  97.04332790  0.000000
         1        29         6  99.72960367  0.000000
         1        34        12  100.5067194  0.000000
         6         0 # stress period 1
         1         9        16  107.5740470  0.000000
         1        11        13  75.41592802  0.000000
         1        20        14  119.6841822  0.000000
         1        26        10  66.84433962  0.000000
         1        29         6  164.6089330  0.000000
         1        34        12  93.96166880  0.000000
         6         0 # stress period 2
         1         9        16  107.5740470  0.000000
         1        11        13  75.41592802  0.000000
         1        20        14  119.6841822  0.000000
         1        26        10  66.84433962  0.000000
         1        29         6  164.6089330  0.000000
         1        34        12  93.96166880  0.000000
