# Basic package file for MODFLOW, generated by Flopy.
 FREE
OPEN/CLOSE                  ibound.ref               1     (25I3) -1 ibound                        
        -999.99
OPEN/CLOSE                    strt.ref               1  (10e12.4) -1 strt                          
