# Well file for MODFLOW, generated by Flopy.
         6         0
         6         0 # stress period 0
         1         9        16  100.7659456  0.000000
         1        11        13  97.33678015  0.000000
         1        20        14  101.9867214  0.000000
         1        26        10  103.2392954  0.000000
         1        29         6  94.23979842  0.000000
         1        34        12  104.5850071  0.000000
         6         0 # stress period 1
         1         9        16  108.8992435  0.000000
         1        11        13  75.11808446  0.000000
         1        20        14  117.4320825  0.000000
         1        26        10  111.8679572  0.000000
         1        29         6  144.0798821  0.000000
         1        34        12  108.5399970  0.000000
         6         0 # stress period 2
         1         9        16  108.8992435  0.000000
         1        11        13  75.11808446  0.000000
         1        20        14  117.4320825  0.000000
         1        26        10  111.8679572  0.000000
         1        29         6  144.0798821  0.000000
         1        34        12  108.5399970  0.000000
