# RIV for MODFLOW, generated by Flopy.
        40         0
        40         0 # stress period 0
         1         1        15 20.100000 3160.5701 20.000000  0.000000
         1         2        15 19.870001 9860.8313 19.750000  0.000000
         1         3        15 19.650000 13077.476 19.500000  0.000000
         1         4        15 19.420000 13168.412 19.250000  0.000000
         1         5        15 19.190001 7324.0093 19.000000  0.000000
         1         6        15 18.969999 4488.4571 18.750000  0.000000
         1         7        15 18.740000 2319.2023 18.500000  0.000000
         1         8        15 18.510000 1443.7635 18.250000  0.000000
         1         9        15 18.280001 4658.2444 18.000000  0.000000
         1        10        15 19.059999 19112.423 17.750000  0.000000
         1        11        15 17.830000 6090.1722 17.500000  0.000000
         1        12        15 17.600000 9554.4970 17.250000  0.000000
         1        13        15 17.379999 1292.9681 17.000000  0.000000
         1        14        15 17.150000 2075.6520 16.750000  0.000000
         1        15        15 16.920000 21629.472 16.500000  0.000000
         1        16        15 16.700001 3581.5499 16.250000  0.000000
         1        17        15 16.469999 4882.2939 16.000000  0.000000
         1        18        15 16.240000 2033.9756 15.750000  0.000000
         1        19        15 16.020000 5892.5270 15.500000  0.000000
         1        20        15 15.790000 97687.761 15.250000  0.000000
         1        21        15 15.560000 19432.795 15.000000  0.000000
         1        22        15 15.330000 7004.5646 14.750000  0.000000
         1        23        15 15.110000 10102.650 14.500000  0.000000
         1        24        15 14.880000 605.18667 14.250000  0.000000
         1        25        15 14.650000 4659.2778 14.000000  0.000000
         1        26        15 14.430000 16446.315 13.750000  0.000000
         1        27        15 14.200000 141.49136 13.500000  0.000000
         1        28        15 13.970000 15436.149 13.250000  0.000000
         1        29        15 13.750000 8558.5031 13.000000  0.000000
         1        30        15 13.520000 12649.120 12.750000  0.000000
         1        31        15 13.290000 2126.2670 12.500000  0.000000
         1        32        15 13.070000 1236.9227 12.250000  0.000000
         1        33        15 12.840000 2347.0870 12.000000  0.000000
         1        34        15 12.610000 1261.4114 11.750000  0.000000
         1        35        15 12.380000 7508.9712 11.500000  0.000000
         1        36        15 12.160000 4266.5695 11.250000  0.000000
         1        37        15 11.930000 8219.1895 11.000000  0.000000
         1        38        15 11.700000 5078.3156 10.750000  0.000000
         1        39        15 11.480000 7593.3510 10.500000  0.000000
         1        40        15 11.250000 1815.0072 10.250000  0.000000
        -1         0 # stress period 1
        -1         0 # stress period 2
