# Well file for MODFLOW, generated by Flopy.
         6         0
         6         0 # stress period 0
         1         9        16  96.79828987  0.000000
         1        11        13  97.70379577  0.000000
         1        20        14  94.33053683  0.000000
         1        26        10  94.90287757  0.000000
         1        29         6  96.02034528  0.000000
         1        34        12  103.6431991  0.000000
         6         0 # stress period 1
         1         9        16  87.66540185  0.000000
         1        11        13  180.6739402  0.000000
         1        20        14  83.31096629  0.000000
         1        26        10  111.7157307  0.000000
         1        29         6  99.87017350  0.000000
         1        34        12  107.7429535  0.000000
         6         0 # stress period 2
         1         9        16  87.66540185  0.000000
         1        11        13  180.6739402  0.000000
         1        20        14  83.31096629  0.000000
         1        26        10  111.7157307  0.000000
         1        29         6  99.87017350  0.000000
         1        34        12  107.7429535  0.000000
