# Well file for MODFLOW, generated by Flopy.
         6         0
         6         0 # stress period 0
         1         9        16  100.0000000  0.000000
         1        11        13  100.0000000  0.000000
         1        20        14  100.0000000  0.000000
         1        26        10  100.0000000  0.000000
         1        29         6  100.0000000  0.000000
         1        34        12  100.0000000  0.000000
         6         0 # stress period 1
         1         9        16  100.0000000  0.000000
         1        11        13  100.0000000  0.000000
         1        20        14  100.0000000  0.000000
         1        26        10  100.0000000  0.000000
         1        29         6  100.0000000  0.000000
         1        34        12  100.0000000  0.000000
         6         0 # stress period 2
         1         9        16  100.0000000  0.000000
         1        11        13  100.0000000  0.000000
         1        20        14  100.0000000  0.000000
         1        26        10  100.0000000  0.000000
         1        29         6  100.0000000  0.000000
         1        34        12  100.0000000  0.000000
