# File generated by Flopy version 3.3.6 on 12/30/2022 at 13:26:47.
BEGIN options
END options

BEGIN timing
  TDIS6  project.tdis
END timing

BEGIN models
  gwf6  project.nam  project
END models

BEGIN exchanges
END exchanges

BEGIN solutiongroup  1
  ims6  project.ims  project
END solutiongroup  1

