# File generated by Flopy version 3.3.6 on 12/30/2022 at 13:26:49.
BEGIN options
  BUDGET  FILEOUT  project.cbc
  HEAD  FILEOUT  project.hds
END options

BEGIN period  1
  SAVE  HEAD  ALL
  SAVE  BUDGET  ALL
END period  1

