# File generated by Flopy version 3.3.6 on 12/30/2022 at 13:26:47.
BEGIN options
  SAVE_FLOWS
  NEWTON  UNDER_RELAXATION
END options

BEGIN packages
  DISV6  project.disv  disv
  IC6  project.ic  ic
  NPF6  project.npf  npf
  RCH6  project.rcha  rcha_0
  SFR6  project.sfr  sfr_0
  WEL6  project.wel  wel_0
  CHD6  project.chd  chd_0
  OC6  project.oc  oc
END packages

