# File generated by Flopy version 3.3.6 on 12/30/2022 at 13:26:49.
BEGIN options
  SAVE_SPECIFIC_DISCHARGE
END options

BEGIN griddata
  icelltype
    OPEN/CLOSE  'project.npf_icelltype.txt'  FACTOR  1
  k  LAYERED
    OPEN/CLOSE  'project.npf_k_layer1.txt'  FACTOR  1.0
    OPEN/CLOSE  'project.npf_k_layer2.txt'  FACTOR  1.0
    OPEN/CLOSE  'project.npf_k_layer3.txt'  FACTOR  1.0
END griddata

