# File generated by Flopy version 3.3.6 on 12/30/2022 at 13:26:47.
BEGIN options
  TIME_UNITS  days
END options

BEGIN dimensions
  NPER  1
END dimensions

BEGIN perioddata
       1.00000000  1       1.00000000
END perioddata

