# File generated by Flopy version 3.3.6 on 12/30/2022 at 13:26:49.
BEGIN griddata
  strt  LAYERED
    OPEN/CLOSE  'project.ic_strt_layer1.txt'  FACTOR  1.0
    OPEN/CLOSE  'project.ic_strt_layer2.txt'  FACTOR  1.0
    OPEN/CLOSE  'project.ic_strt_layer3.txt'  FACTOR  1.0
END griddata

