# File generated by Flopy version 3.3.6 on 12/30/2022 at 13:26:49.
BEGIN options
  PRINT_INPUT
END options

BEGIN continuous  FILEOUT  sfr_obs.csv
    OPEN/CLOSE  'project.sfr.obs_continuous_sfr_obs.csv.txt'
END continuous  FILEOUT  sfr_obs.csv

