# File generated by Flopy version 3.3.6 on 12/30/2022 at 13:26:49.
BEGIN options
END options

BEGIN dimensions
  MAXBOUND  56
END dimensions

BEGIN period  1
    OPEN/CLOSE  'project.chd_stress_period_data_1.txt'
END period  1

