# File generated by Flopy version 3.3.6 on 12/30/2022 at 13:26:49.
BEGIN options
  READASARRAYS
END options

BEGIN period  1
  recharge
    OPEN/CLOSE  'project.rcha_recharge_1.txt'  FACTOR  1.0
END period  1

