# File generated by Flopy version 3.3.6 on 12/30/2022 at 13:26:47.
BEGIN options
  PRINT_OPTION  all
END options

BEGIN nonlinear
  OUTER_MAXIMUM  200
  outer_hclose 0.000001
END nonlinear

BEGIN linear
  INNER_MAXIMUM  100
  LINEAR_ACCELERATION  bicgstab
  inner_hclose 0.000001
END linear

