pcf
* control data
             restart          estimation
       601        75         2         0         3         0
         2         5              single               point         1         0         0            noobsref
   1.000000E+01   2.000000E+00   3.000000E-01   3.000000E-02        10       999          lamforgive        noderforgive
   3.000000E+00   3.000000E+00   1.000000E-03         0         0
   1.000000E-01         1   1.100000E+00               noaui          nosenreuse        noboundscale
        -1   5.000000E-03         4         4   1.000000E-03         4   0.000000E+00         1  -1.000000E+00
         1         1         1         0             jcosave          verboserec          jcosaveitn          reisaveitn          parsaveitn          parsaverun
* singular value decomposition
1
75  1.0e-7
1  0  0
* parameter groups
p  relative    1.000000E-02  0  switch    2.000000E+00             parabolic    1.000000E-05    5.000000E-01               smaller
m  relative    1.000000E-02  0  switch    2.000000E+00             parabolic    1.000000E-05    5.000000E-01               smaller
* parameter data
mult1                     log                factor    2.339935E+00    2.500000E-01    2.500000E+00                     m    1.000000E+00    0.000000E+00          1
kr01c01                   log                factor    5.079398E+01    2.000000E+01    2.000000E+03                     p    1.000000E+00    0.000000E+00          1
kr01c02                   log                factor    8.329315E+02    2.000000E+01    2.000000E+03                     p    1.000000E+00    0.000000E+00          1
kr01c03                   log                factor    3.392841E+02    2.000000E+01    2.000000E+03                     p    1.000000E+00    0.000000E+00          1
kr01c04                   log                factor    4.504477E+02    2.000000E+01    2.000000E+03                     p    1.000000E+00    0.000000E+00          1
kr01c05                   log                factor    2.694674E+02    2.000000E+01    2.000000E+03                     p    1.000000E+00    0.000000E+00          1
kr01c06                   log                factor    1.564497E+02    2.000000E+01    2.000000E+03                     p    1.000000E+00    0.000000E+00          1
kr01c07                   log                factor    1.493115E+03    2.000000E+01    2.000000E+03                     p    1.000000E+00    0.000000E+00          1
kr01c08                   log                factor    2.043676E+02    2.000000E+01    2.000000E+03                     p    1.000000E+00    0.000000E+00          1
kr01c09                   log                factor    9.087198E+01    2.000000E+01    2.000000E+03                     p    1.000000E+00    0.000000E+00          1
kr01c10                   log                factor    5.982173E+02    2.000000E+01    2.000000E+03                     p    1.000000E+00    0.000000E+00          1
kr01c11                   log                factor    4.068521E+02    2.000000E+01    2.000000E+03                     p    1.000000E+00    0.000000E+00          1
kr01c12                   log                factor    4.802506E+01    2.000000E+01    2.000000E+03                     p    1.000000E+00    0.000000E+00          1
kr01c13                   log                factor    2.642273E+01    2.000000E+01    2.000000E+03                     p    1.000000E+00    0.000000E+00          1
kr01c14                   log                factor    1.093522E+02    2.000000E+01    2.000000E+03                     p    1.000000E+00    0.000000E+00          1
kr01c15                   log                factor    2.565555E+01    2.000000E+01    2.000000E+03                     p    1.000000E+00    0.000000E+00          1
kr01c16                   log                factor    9.778391E+02    2.000000E+01    2.000000E+03                     p    1.000000E+00    0.000000E+00          1
kr01c17                   log                factor    4.253007E+01    2.000000E+01    2.000000E+03                     p    1.000000E+00    0.000000E+00          1
kr01c18                   log                factor    1.033564E+02    2.000000E+01    2.000000E+03                     p    1.000000E+00    0.000000E+00          1
kr01c19                   log                factor    2.852845E+02    2.000000E+01    2.000000E+03                     p    1.000000E+00    0.000000E+00          1
kr01c20                   log                factor    5.196234E+02    2.000000E+01    2.000000E+03                     p    1.000000E+00    0.000000E+00          1
kr01c21                   log                factor    8.315802E+01    2.000000E+01    2.000000E+03                     p    1.000000E+00    0.000000E+00          1
kr01c22                   log                factor    3.125776E+02    2.000000E+01    2.000000E+03                     p    1.000000E+00    0.000000E+00          1
kr01c23                   log                factor    1.095769E+02    2.000000E+01    2.000000E+03                     p    1.000000E+00    0.000000E+00          1
kr01c24                   log                factor    9.657021E+01    2.000000E+01    2.000000E+03                     p    1.000000E+00    0.000000E+00          1
kr01c25                   log                factor    1.647044E+02    2.000000E+01    2.000000E+03                     p    1.000000E+00    0.000000E+00          1
kr01c26                   log                factor    2.529865E+02    2.000000E+01    2.000000E+03                     p    1.000000E+00    0.000000E+00          1
kr01c27                   log                factor    3.088849E+02    2.000000E+01    2.000000E+03                     p    1.000000E+00    0.000000E+00          1
kr01c28                   log                factor    1.455522E+01    2.000000E+01    2.000000E+03                     p    1.000000E+00    0.000000E+00          1
kr01c29                   log                factor    9.981317E+02    2.000000E+01    2.000000E+03                     p    1.000000E+00    0.000000E+00          1
kr01c30                   log                factor    7.546938E+01    2.000000E+01    2.000000E+03                     p    1.000000E+00    0.000000E+00          1
kr01c31                   log                factor    7.562763E+01    2.000000E+01    2.000000E+03                     p    1.000000E+00    0.000000E+00          1
kr01c32                   log                factor    8.143010E+01    2.000000E+01    2.000000E+03                     p    1.000000E+00    0.000000E+00          1
kr01c33                   log                factor    1.781264E+02    2.000000E+01    2.000000E+03                     p    1.000000E+00    0.000000E+00          1
kr01c34                   log                factor    2.440551E+01    2.000000E+01    2.000000E+03                     p    1.000000E+00    0.000000E+00          1
kr01c35                   log                factor    6.387160E+01    2.000000E+01    2.000000E+03                     p    1.000000E+00    0.000000E+00          1
kr01c36                   log                factor    5.338748E+01    2.000000E+01    2.000000E+03                     p    1.000000E+00    0.000000E+00          1
kr01c37                   log                factor    5.108515E+02    2.000000E+01    2.000000E+03                     p    1.000000E+00    0.000000E+00          1
kr01c38                   log                factor    1.742965E+02    2.000000E+01    2.000000E+03                     p    1.000000E+00    0.000000E+00          1
kr01c39                   log                factor    1.026565E+02    2.000000E+01    2.000000E+03                     p    1.000000E+00    0.000000E+00          1
kr01c40                   log                factor    9.049225E+02    2.000000E+01    2.000000E+03                     p    1.000000E+00    0.000000E+00          1
kr01c41                   log                factor    4.022320E+01    2.000000E+01    2.000000E+03                     p    1.000000E+00    0.000000E+00          1
kr01c42                   log                factor    2.408563E+02    2.000000E+01    2.000000E+03                     p    1.000000E+00    0.000000E+00          1
kr01c43                   log                factor    6.871285E+01    2.000000E+01    2.000000E+03                     p    1.000000E+00    0.000000E+00          1
kr01c44                   log                factor    3.864101E+02    2.000000E+01    2.000000E+03                     p    1.000000E+00    0.000000E+00          1
kr01c45                   log                factor    8.224576E+02    2.000000E+01    2.000000E+03                     p    1.000000E+00    0.000000E+00          1
kr01c46                   log                factor    2.086655E+03    2.000000E+01    2.000000E+03                     p    1.000000E+00    0.000000E+00          1
kr01c47                   log                factor    1.104697E+02    2.000000E+01    2.000000E+03                     p    1.000000E+00    0.000000E+00          1
kr01c48                   log                factor    4.567732E+02    2.000000E+01    2.000000E+03                     p    1.000000E+00    0.000000E+00          1
kr01c49                   log                factor    2.191528E+02    2.000000E+01    2.000000E+03                     p    1.000000E+00    0.000000E+00          1
kr01c50                   log                factor    2.496597E+02    2.000000E+01    2.000000E+03                     p    1.000000E+00    0.000000E+00          1
kr01c51                   log                factor    3.973397E+02    2.000000E+01    2.000000E+03                     p    1.000000E+00    0.000000E+00          1
kr01c52                   log                factor    4.666374E+01    2.000000E+01    2.000000E+03                     p    1.000000E+00    0.000000E+00          1
kr01c53                   log                factor    1.218103E+02    2.000000E+01    2.000000E+03                     p    1.000000E+00    0.000000E+00          1
kr01c54                   log                factor    4.756655E+02    2.000000E+01    2.000000E+03                     p    1.000000E+00    0.000000E+00          1
kr01c55                   log                factor    5.229836E+01    2.000000E+01    2.000000E+03                     p    1.000000E+00    0.000000E+00          1
kr01c56                   log                factor    1.070165E+03    2.000000E+01    2.000000E+03                     p    1.000000E+00    0.000000E+00          1
kr01c57                   log                factor    4.393097E+01    2.000000E+01    2.000000E+03                     p    1.000000E+00    0.000000E+00          1
kr01c58                   log                factor    7.860986E+01    2.000000E+01    2.000000E+03                     p    1.000000E+00    0.000000E+00          1
kr01c59                   log                factor    2.066622E+02    2.000000E+01    2.000000E+03                     p    1.000000E+00    0.000000E+00          1
kr01c60                   log                factor    1.743536E+02    2.000000E+01    2.000000E+03                     p    1.000000E+00    0.000000E+00          1
kr02c01                   log                factor    4.594825E+01    2.000000E+01    2.000000E+03                     p    1.000000E+00    0.000000E+00          1
kr02c02                   log                factor    1.544536E+02    2.000000E+01    2.000000E+03                     p    1.000000E+00    0.000000E+00          1
kr02c03                   log                factor    6.997903E+02    2.000000E+01    2.000000E+03                     p    1.000000E+00    0.000000E+00          1
kr02c04                   log                factor    7.489849E+02    2.000000E+01    2.000000E+03                     p    1.000000E+00    0.000000E+00          1
kr02c05                   log                factor    2.982077E+02    2.000000E+01    2.000000E+03                     p    1.000000E+00    0.000000E+00          1
kr02c06                   log                factor    2.082896E+02    2.000000E+01    2.000000E+03                     p    1.000000E+00    0.000000E+00          1
kr02c07                   log                factor    1.858184E+02    2.000000E+01    2.000000E+03                     p    1.000000E+00    0.000000E+00          1
kr02c08                   log                factor    5.050299E+01    2.000000E+01    2.000000E+03                     p    1.000000E+00    0.000000E+00          1
kr02c09                   log                factor    3.136476E+01    2.000000E+01    2.000000E+03                     p    1.000000E+00    0.000000E+00          1
kr02c10                   log                factor    2.134794E+02    2.000000E+01    2.000000E+03                     p    1.000000E+00    0.000000E+00          1
kr02c11                   log                factor    1.988024E+02    2.000000E+01    2.000000E+03                     p    1.000000E+00    0.000000E+00          1
kr02c12                   log                factor    3.611878E+02    2.000000E+01    2.000000E+03                     p    1.000000E+00    0.000000E+00          1
kr02c13                   log                factor    5.233916E+02    2.000000E+01    2.000000E+03                     p    1.000000E+00    0.000000E+00          1
kr02c14                   log                factor    1.471911E+02    2.000000E+01    2.000000E+03                     p    1.000000E+00    0.000000E+00          1
kr02c15                   log                factor    7.322510E+01    2.000000E+01    2.000000E+03                     p    1.000000E+00    0.000000E+00          1
kr02c16                   log                factor    2.184184E+03    2.000000E+01    2.000000E+03                     p    1.000000E+00    0.000000E+00          1
kr02c17                   log                factor    1.021542E+03    2.000000E+01    2.000000E+03                     p    1.000000E+00    0.000000E+00          1
kr02c18                   log                factor    2.094460E+03    2.000000E+01    2.000000E+03                     p    1.000000E+00    0.000000E+00          1
kr02c19                   log                factor    6.502007E+02    2.000000E+01    2.000000E+03                     p    1.000000E+00    0.000000E+00          1
kr02c20                   log                factor    2.011321E+03    2.000000E+01    2.000000E+03                     p    1.000000E+00    0.000000E+00          1
kr02c21                   log                factor    9.838372E+01    2.000000E+01    2.000000E+03                     p    1.000000E+00    0.000000E+00          1
kr02c22                   log                factor    6.662351E+01    2.000000E+01    2.000000E+03                     p    1.000000E+00    0.000000E+00          1
kr02c23                   log                factor    2.423599E+02    2.000000E+01    2.000000E+03                     p    1.000000E+00    0.000000E+00          1
kr02c24                   log                factor    1.239762E+02    2.000000E+01    2.000000E+03                     p    1.000000E+00    0.000000E+00          1
kr02c25                   log                factor    1.463135E+02    2.000000E+01    2.000000E+03                     p    1.000000E+00    0.000000E+00          1
kr02c26                   log                factor    1.446462E+02    2.000000E+01    2.000000E+03                     p    1.000000E+00    0.000000E+00          1
kr02c27                   log                factor    9.557699E+02    2.000000E+01    2.000000E+03                     p    1.000000E+00    0.000000E+00          1
kr02c28                   log                factor    2.651827E+01    2.000000E+01    2.000000E+03                     p    1.000000E+00    0.000000E+00          1
kr02c29                   log                factor    1.868880E+02    2.000000E+01    2.000000E+03                     p    1.000000E+00    0.000000E+00          1
kr02c30                   log                factor    1.204421E+03    2.000000E+01    2.000000E+03                     p    1.000000E+00    0.000000E+00          1
kr02c31                   log                factor    5.992297E+02    2.000000E+01    2.000000E+03                     p    1.000000E+00    0.000000E+00          1
kr02c32                   log                factor    2.428582E+02    2.000000E+01    2.000000E+03                     p    1.000000E+00    0.000000E+00          1
kr02c33                   log                factor    1.400378E+03    2.000000E+01    2.000000E+03                     p    1.000000E+00    0.000000E+00          1
kr02c34                   log                factor    8.820639E+01    2.000000E+01    2.000000E+03                     p    1.000000E+00    0.000000E+00          1
kr02c35                   log                factor    1.264356E+02    2.000000E+01    2.000000E+03                     p    1.000000E+00    0.000000E+00          1
kr02c36                   log                factor    4.065574E+01    2.000000E+01    2.000000E+03                     p    1.000000E+00    0.000000E+00          1
kr02c37                   log                factor    1.321027E+02    2.000000E+01    2.000000E+03                     p    1.000000E+00    0.000000E+00          1
kr02c38                   log                factor    7.495207E+02    2.000000E+01    2.000000E+03                     p    1.000000E+00    0.000000E+00          1
kr02c39                   log                factor    5.106067E+02    2.000000E+01    2.000000E+03                     p    1.000000E+00    0.000000E+00          1
kr02c40                   log                factor    2.198963E+01    2.000000E+01    2.000000E+03                     p    1.000000E+00    0.000000E+00          1
kr02c41                   log                factor    3.362190E+01    2.000000E+01    2.000000E+03                     p    1.000000E+00    0.000000E+00          1
kr02c42                   log                factor    5.941989E+02    2.000000E+01    2.000000E+03                     p    1.000000E+00    0.000000E+00          1
kr02c43                   log                factor    4.048049E+01    2.000000E+01    2.000000E+03                     p    1.000000E+00    0.000000E+00          1
kr02c44                   log                factor    1.056319E+02    2.000000E+01    2.000000E+03                     p    1.000000E+00    0.000000E+00          1
kr02c45                   log                factor    4.094688E+02    2.000000E+01    2.000000E+03                     p    1.000000E+00    0.000000E+00          1
kr02c46                   log                factor    7.597008E+01    2.000000E+01    2.000000E+03                     p    1.000000E+00    0.000000E+00          1
kr02c47                   log                factor    2.530926E+02    2.000000E+01    2.000000E+03                     p    1.000000E+00    0.000000E+00          1
kr02c48                   log                factor    6.705670E+02    2.000000E+01    2.000000E+03                     p    1.000000E+00    0.000000E+00          1
kr02c49                   log                factor    2.114960E+02    2.000000E+01    2.000000E+03                     p    1.000000E+00    0.000000E+00          1
kr02c50                   log                factor    5.536745E+01    2.000000E+01    2.000000E+03                     p    1.000000E+00    0.000000E+00          1
kr02c51                   log                factor    4.314173E+02    2.000000E+01    2.000000E+03                     p    1.000000E+00    0.000000E+00          1
kr02c52                   log                factor    3.836316E+01    2.000000E+01    2.000000E+03                     p    1.000000E+00    0.000000E+00          1
kr02c53                   log                factor    5.210767E+02    2.000000E+01    2.000000E+03                     p    1.000000E+00    0.000000E+00          1
kr02c54                   log                factor    2.465462E+02    2.000000E+01    2.000000E+03                     p    1.000000E+00    0.000000E+00          1
kr02c55                   log                factor    1.181329E+02    2.000000E+01    2.000000E+03                     p    1.000000E+00    0.000000E+00          1
kr02c56                   log                factor    3.168862E+02    2.000000E+01    2.000000E+03                     p    1.000000E+00    0.000000E+00          1
kr02c57                   log                factor    3.339924E+02    2.000000E+01    2.000000E+03                     p    1.000000E+00    0.000000E+00          1
kr02c58                   log                factor    2.201520E+02    2.000000E+01    2.000000E+03                     p    1.000000E+00    0.000000E+00          1
kr02c59                   log                factor    8.333070E+02    2.000000E+01    2.000000E+03                     p    1.000000E+00    0.000000E+00          1
kr02c60                   log                factor    8.055207E+02    2.000000E+01    2.000000E+03                     p    1.000000E+00    0.000000E+00          1
kr03c01                   log                factor    1.194852E+02    2.000000E+01    2.000000E+03                     p    1.000000E+00    0.000000E+00          1
kr03c02                   log                factor    3.629565E+02    2.000000E+01    2.000000E+03                     p    1.000000E+00    0.000000E+00          1
kr03c03                   log                factor    3.116428E+02    2.000000E+01    2.000000E+03                     p    1.000000E+00    0.000000E+00          1
kr03c04                   log                factor    3.339654E+02    2.000000E+01    2.000000E+03                     p    1.000000E+00    0.000000E+00          1
kr03c05                   log                factor    1.879114E+02    2.000000E+01    2.000000E+03                     p    1.000000E+00    0.000000E+00          1
kr03c06                   log                factor    6.150192E+00    2.000000E+01    2.000000E+03                     p    1.000000E+00    0.000000E+00          1
kr03c07                   log                factor    1.720730E+02    2.000000E+01    2.000000E+03                     p    1.000000E+00    0.000000E+00          1
kr03c08                   log                factor    1.115721E+03    2.000000E+01    2.000000E+03                     p    1.000000E+00    0.000000E+00          1
kr03c09                   log                factor    2.443686E+02    2.000000E+01    2.000000E+03                     p    1.000000E+00    0.000000E+00          1
kr03c10                   log                factor    1.193575E+02    2.000000E+01    2.000000E+03                     p    1.000000E+00    0.000000E+00          1
kr03c11                   log                factor    3.655290E+02    2.000000E+01    2.000000E+03                     p    1.000000E+00    0.000000E+00          1
kr03c12                   log                factor    6.054839E+01    2.000000E+01    2.000000E+03                     p    1.000000E+00    0.000000E+00          1
kr03c13                   log                factor    5.809033E+01    2.000000E+01    2.000000E+03                     p    1.000000E+00    0.000000E+00          1
kr03c14                   log                factor    1.259521E+03    2.000000E+01    2.000000E+03                     p    1.000000E+00    0.000000E+00          1
kr03c15                   log                factor    7.690884E+01    2.000000E+01    2.000000E+03                     p    1.000000E+00    0.000000E+00          1
kr03c16                   log                factor    1.490096E+02    2.000000E+01    2.000000E+03                     p    1.000000E+00    0.000000E+00          1
kr03c17                   log                factor    2.488481E+02    2.000000E+01    2.000000E+03                     p    1.000000E+00    0.000000E+00          1
kr03c18                   log                factor    3.224938E+02    2.000000E+01    2.000000E+03                     p    1.000000E+00    0.000000E+00          1
kr03c19                   log                factor    1.357621E+02    2.000000E+01    2.000000E+03                     p    1.000000E+00    0.000000E+00          1
kr03c20                   log                factor    6.684993E+01    2.000000E+01    2.000000E+03                     p    1.000000E+00    0.000000E+00          1
kr03c21                   log                factor    1.085672E+02    2.000000E+01    2.000000E+03                     p    1.000000E+00    0.000000E+00          1
kr03c22                   log                factor    3.317379E+02    2.000000E+01    2.000000E+03                     p    1.000000E+00    0.000000E+00          1
kr03c23                   log                factor    6.067537E+01    2.000000E+01    2.000000E+03                     p    1.000000E+00    0.000000E+00          1
kr03c24                   log                factor    1.470334E+02    2.000000E+01    2.000000E+03                     p    1.000000E+00    0.000000E+00          1
kr03c25                   log                factor    1.685065E+03    2.000000E+01    2.000000E+03                     p    1.000000E+00    0.000000E+00          1
kr03c26                   log                factor    1.348655E+03    2.000000E+01    2.000000E+03                     p    1.000000E+00    0.000000E+00          1
kr03c27                   log                factor    4.086340E+02    2.000000E+01    2.000000E+03                     p    1.000000E+00    0.000000E+00          1
kr03c28                   log                factor    3.932542E+01    2.000000E+01    2.000000E+03                     p    1.000000E+00    0.000000E+00          1
kr03c29                   log                factor    6.092579E+02    2.000000E+01    2.000000E+03                     p    1.000000E+00    0.000000E+00          1
kr03c30                   log                factor    2.634192E+02    2.000000E+01    2.000000E+03                     p    1.000000E+00    0.000000E+00          1
kr03c31                   log                factor    6.087027E+01    2.000000E+01    2.000000E+03                     p    1.000000E+00    0.000000E+00          1
kr03c32                   log                factor    4.802130E+02    2.000000E+01    2.000000E+03                     p    1.000000E+00    0.000000E+00          1
kr03c33                   log                factor    1.200464E+02    2.000000E+01    2.000000E+03                     p    1.000000E+00    0.000000E+00          1
kr03c34                   log                factor    3.573684E+01    2.000000E+01    2.000000E+03                     p    1.000000E+00    0.000000E+00          1
kr03c35                   log                factor    1.046894E+02    2.000000E+01    2.000000E+03                     p    1.000000E+00    0.000000E+00          1
kr03c36                   log                factor    8.958515E+02    2.000000E+01    2.000000E+03                     p    1.000000E+00    0.000000E+00          1
kr03c37                   log                factor    5.020772E+02    2.000000E+01    2.000000E+03                     p    1.000000E+00    0.000000E+00          1
kr03c38                   log                factor    1.749099E+03    2.000000E+01    2.000000E+03                     p    1.000000E+00    0.000000E+00          1
kr03c39                   log                factor    9.570918E+01    2.000000E+01    2.000000E+03                     p    1.000000E+00    0.000000E+00          1
kr03c40                   log                factor    5.716839E+01    2.000000E+01    2.000000E+03                     p    1.000000E+00    0.000000E+00          1
kr03c41                   log                factor    1.829186E+02    2.000000E+01    2.000000E+03                     p    1.000000E+00    0.000000E+00          1
kr03c42                   log                factor    2.895261E+02    2.000000E+01    2.000000E+03                     p    1.000000E+00    0.000000E+00          1
kr03c43                   log                factor    5.314375E+01    2.000000E+01    2.000000E+03                     p    1.000000E+00    0.000000E+00          1
kr03c44                   log                factor    1.574484E+02    2.000000E+01    2.000000E+03                     p    1.000000E+00    0.000000E+00          1
kr03c45                   log                factor    5.134127E+02    2.000000E+01    2.000000E+03                     p    1.000000E+00    0.000000E+00          1
kr03c46                   log                factor    6.676891E+01    2.000000E+01    2.000000E+03                     p    1.000000E+00    0.000000E+00          1
kr03c47                   log                factor    6.179483E+02    2.000000E+01    2.000000E+03                     p    1.000000E+00    0.000000E+00          1
kr03c48                   log                factor    3.289589E+02    2.000000E+01    2.000000E+03                     p    1.000000E+00    0.000000E+00          1
kr03c49                   log                factor    1.862739E+02    2.000000E+01    2.000000E+03                     p    1.000000E+00    0.000000E+00          1
kr03c50                   log                factor    4.830320E+02    2.000000E+01    2.000000E+03                     p    1.000000E+00    0.000000E+00          1
kr03c51                   log                factor    5.211364E+01    2.000000E+01    2.000000E+03                     p    1.000000E+00    0.000000E+00          1
kr03c52                   log                factor    1.578772E+02    2.000000E+01    2.000000E+03                     p    1.000000E+00    0.000000E+00          1
kr03c53                   log                factor    1.906096E+02    2.000000E+01    2.000000E+03                     p    1.000000E+00    0.000000E+00          1