pcf
* control data
             restart          estimation
       601        75         2         0         3         0
         2         5              single               point         1         0         0            noobsref
   1.000000E+01   2.000000E+00   3.000000E-01   3.000000E-02        10       999          lamforgive        noderforgive
   3.000000E+00   3.000000E+00   1.000000E-03         0         0
   1.000000E-01         1   1.100000E+00               noaui          nosenreuse        noboundscale
        -1   5.000000E-03         4         4   1.000000E-03         4   0.000000E+00         1  -1.000000E+00
         1         1         1         0             jcosave          verboserec          jcosaveitn          reisaveitn          parsaveitn        noparsaverun
* singular value decomposition
1
75  1.0e-7
1  0  0
* parameter groups
                    p              relative    1.000000E-02  0                switch    2.000000E+00             parabolic    1.000000E-05    5.000000E-01               smaller
                    m              relative    1.000000E-02  0                switch    2.000000E+00             parabolic    1.000000E-05    5.000000E-01               smaller
* parameter data
                mult1                   log                factor    4.255090E-01    2.500000E-01    2.500000E+00                     m    1.000000E+00    0.000000E+00          1
              kr01c01                   log                factor    1.278885E+02    2.000000E+01    2.000000E+03                     p    1.000000E+00    0.000000E+00          1
              kr01c02                   log                factor    3.255402E+01    2.000000E+01    2.000000E+03                     p    1.000000E+00    0.000000E+00          1
              kr01c03                   log                factor    2.224240E+02    2.000000E+01    2.000000E+03                     p    1.000000E+00    0.000000E+00          1
              kr01c04                   log                factor    3.272997E+02    2.000000E+01    2.000000E+03                     p    1.000000E+00    0.000000E+00          1
              kr01c05                   log                factor    1.212811E+02    2.000000E+01    2.000000E+03                     p    1.000000E+00    0.000000E+00          1
              kr01c06                   log                factor    1.802064E+03    2.000000E+01    2.000000E+03                     p    1.000000E+00    0.000000E+00          1
              kr01c07                   log                factor    3.143822E+02    2.000000E+01    2.000000E+03                     p    1.000000E+00    0.000000E+00          1
              kr01c08                   log                factor    6.216520E+02    2.000000E+01    2.000000E+03                     p    1.000000E+00    0.000000E+00          1
              kr01c09                   log                factor    6.123147E+01    2.000000E+01    2.000000E+03                     p    1.000000E+00    0.000000E+00          1
              kr01c10                   log                factor    7.746820E+01    2.000000E+01    2.000000E+03                     p    1.000000E+00    0.000000E+00          1
              kr01c11                   log                factor    1.495021E+02    2.000000E+01    2.000000E+03                     p    1.000000E+00    0.000000E+00          1
              kr01c12                   log                factor    5.674390E+01    2.000000E+01    2.000000E+03                     p    1.000000E+00    0.000000E+00          1
              kr01c13                   log                factor    1.390586E+02    2.000000E+01    2.000000E+03                     p    1.000000E+00    0.000000E+00          1
              kr01c14                   log                factor    2.445077E+02    2.000000E+01    2.000000E+03                     p    1.000000E+00    0.000000E+00          1
              kr01c15                   log                factor    1.611918E+02    2.000000E+01    2.000000E+03                     p    1.000000E+00    0.000000E+00          1
              kr01c16                   log                factor    2.811778E+02    2.000000E+01    2.000000E+03                     p    1.000000E+00    0.000000E+00          1
              kr01c17                   log                factor    1.900083E+02    2.000000E+01    2.000000E+03                     p    1.000000E+00    0.000000E+00          1
              kr01c18                   log                factor    4.613567E+02    2.000000E+01    2.000000E+03                     p    1.000000E+00    0.000000E+00          1
              kr01c19                   log                factor    1.069104E+02    2.000000E+01    2.000000E+03                     p    1.000000E+00    0.000000E+00          1
              kr01c20                   log                factor    1.388934E+02    2.000000E+01    2.000000E+03                     p    1.000000E+00    0.000000E+00          1
              kr01c21                   log                factor    5.356995E+02    2.000000E+01    2.000000E+03                     p    1.000000E+00    0.000000E+00          1
              kr01c22                   log                factor    2.626693E+02    2.000000E+01    2.000000E+03                     p    1.000000E+00    0.000000E+00          1
              kr01c23                   log                factor    4.602540E+02    2.000000E+01    2.000000E+03                     p    1.000000E+00    0.000000E+00          1
              kr01c24                   log                factor    2.117104E+02    2.000000E+01    2.000000E+03                     p    1.000000E+00    0.000000E+00          1
              kr01c25                   log                factor    3.591775E+01    2.000000E+01    2.000000E+03                     p    1.000000E+00    0.000000E+00          1
              kr01c26                   log                factor    4.567560E+02    2.000000E+01    2.000000E+03                     p    1.000000E+00    0.000000E+00          1
              kr01c27                   log                factor    9.277289E+01    2.000000E+01    2.000000E+03                     p    1.000000E+00    0.000000E+00          1
              kr01c28                   log                factor    1.754973E+02    2.000000E+01    2.000000E+03                     p    1.000000E+00    0.000000E+00          1
              kr01c29                   log                factor    2.462646E+02    2.000000E+01    2.000000E+03                     p    1.000000E+00    0.000000E+00          1
              kr01c30                   log                factor    5.691029E+02    2.000000E+01    2.000000E+03                     p    1.000000E+00    0.000000E+00          1
              kr01c31                   log                factor    4.515657E+02    2.000000E+01    2.000000E+03                     p    1.000000E+00    0.000000E+00          1
              kr01c32                   log                factor    3.425317E+02    2.000000E+01    2.000000E+03                     p    1.000000E+00    0.000000E+00          1
              kr01c33                   log                factor    2.273408E+02    2.000000E+01    2.000000E+03                     p    1.000000E+00    0.000000E+00          1
              kr01c34                   log                factor    1.114330E+01    2.000000E+01    2.000000E+03                     p    1.000000E+00    0.000000E+00          1
              kr01c35                   log                factor    4.736759E+02    2.000000E+01    2.000000E+03                     p    1.000000E+00    0.000000E+00          1
              kr01c36                   log                factor    1.344963E+02    2.000000E+01    2.000000E+03                     p    1.000000E+00    0.000000E+00          1
              kr01c37                   log                factor    9.952255E+00    2.000000E+01    2.000000E+03                     p    1.000000E+00    0.000000E+00          1
              kr01c38                   log                factor    3.222419E+02    2.000000E+01    2.000000E+03                     p    1.000000E+00    0.000000E+00          1
              kr01c39                   log                factor    3.827689E+02    2.000000E+01    2.000000E+03                     p    1.000000E+00    0.000000E+00          1
              kr01c40                   log                factor    1.915279E+02    2.000000E+01    2.000000E+03                     p    1.000000E+00    0.000000E+00          1
              kr01c41                   log                factor    2.970844E+01    2.000000E+01    2.000000E+03                     p    1.000000E+00    0.000000E+00          1
              kr01c42                   log                factor    1.190508E+02    2.000000E+01    2.000000E+03                     p    1.000000E+00    0.000000E+00          1
              kr01c43                   log                factor    2.709136E+02    2.000000E+01    2.000000E+03                     p    1.000000E+00    0.000000E+00          1
              kr01c44                   log                factor    6.650334E+02    2.000000E+01    2.000000E+03                     p    1.000000E+00    0.000000E+00          1
              kr01c45                   log                factor    2.771621E+02    2.000000E+01    2.000000E+03                     p    1.000000E+00    0.000000E+00          1
              kr01c46                   log                factor    1.094813E+02    2.000000E+01    2.000000E+03                     p    1.000000E+00    0.000000E+00          1
              kr01c47                   log                factor    5.555630E+02    2.000000E+01    2.000000E+03                     p    1.000000E+00    0.000000E+00          1
              kr01c48                   log                factor    6.839374E+01    2.000000E+01    2.000000E+03                     p    1.000000E+00    0.000000E+00          1
              kr01c49                   log                factor    9.192715E+01    2.000000E+01    2.000000E+03                     p    1.000000E+00    0.000000E+00          1
              kr01c50                   log                factor    5.841221E+02    2.000000E+01    2.000000E+03                     p    1.000000E+00    0.000000E+00          1
              kr01c51                   log                factor    4.235551E+01    2.000000E+01    2.000000E+03                     p    1.000000E+00    0.000000E+00          1
              kr01c52                   log                factor    5.380306E+02    2.000000E+01    2.000000E+03                     p    1.000000E+00    0.000000E+00          1
              kr01c53                   log                factor    2.970139E+01    2.000000E+01    2.000000E+03                     p    1.000000E+00    0.000000E+00          1
              kr01c54                   log                factor    4.363106E+01    2.000000E+01    2.000000E+03                     p    1.000000E+00    0.000000E+00          1
              kr01c55                   log                factor    2.073961E+02    2.000000E+01    2.000000E+03                     p    1.000000E+00    0.000000E+00          1
              kr01c56                   log                factor    1.666865E+03    2.000000E+01    2.000000E+03                     p    1.000000E+00    0.000000E+00          1
              kr01c57                   log                factor    2.552493E+02    2.000000E+01    2.000000E+03                     p    1.000000E+00    0.000000E+00          1
              kr01c58                   log                factor    2.612327E+02    2.000000E+01    2.000000E+03                     p    1.000000E+00    0.000000E+00          1
              kr01c59                   log                factor    1.585847E+02    2.000000E+01    2.000000E+03                     p    1.000000E+00    0.000000E+00          1
              kr01c60                   log                factor    3.473906E+01    2.000000E+01    2.000000E+03                     p    1.000000E+00    0.000000E+00          1
              kr02c01                   log                factor    9.773280E+02    2.000000E+01    2.000000E+03                     p    1.000000E+00    0.000000E+00          1
              kr02c02                   log                factor    1.647710E+01    2.000000E+01    2.000000E+03                     p    1.000000E+00    0.000000E+00          1
              kr02c03                   log                factor    1.984003E+02    2.000000E+01    2.000000E+03                     p    1.000000E+00    0.000000E+00          1
              kr02c04                   log                factor    2.268437E+01    2.000000E+01    2.000000E+03                     p    1.000000E+00    0.000000E+00          1
              kr02c05                   log                factor    3.141096E+02    2.000000E+01    2.000000E+03                     p    1.000000E+00    0.000000E+00          1
              kr02c06                   log                factor    2.596985E+02    2.000000E+01    2.000000E+03                     p    1.000000E+00    0.000000E+00          1
              kr02c07                   log                factor    3.152422E+01    2.000000E+01    2.000000E+03                     p    1.000000E+00    0.000000E+00          1
              kr02c08                   log                factor    5.442919E+01    2.000000E+01    2.000000E+03                     p    1.000000E+00    0.000000E+00          1
              kr02c09                   log                factor    3.622276E+02    2.000000E+01    2.000000E+03                     p    1.000000E+00    0.000000E+00          1
              kr02c10                   log                factor    2.967519E+02    2.000000E+01    2.000000E+03                     p    1.000000E+00    0.000000E+00          1
              kr02c11                   log                factor    5.915479E+01    2.000000E+01    2.000000E+03                     p    1.000000E+00    0.000000E+00          1
              kr02c12                   log                factor    4.231670E+02    2.000000E+01    2.000000E+03                     p    1.000000E+00    0.000000E+00          1
              kr02c13                   log                factor    1.325503E+02    2.000000E+01    2.000000E+03                     p    1.000000E+00    0.000000E+00          1
              kr02c14                   log                factor    3.152684E+02    2.000000E+01    2.000000E+03                     p    1.000000E+00    0.000000E+00          1
              kr02c15                   log                factor    5.026947E+02    2.000000E+01    2.000000E+03                     p    1.000000E+00    0.000000E+00          1
              kr02c16                   log                factor    1.666565E+02    2.000000E+01    2.000000E+03                     p    1.000000E+00    0.000000E+00          1
              kr02c17                   log                factor    1.688459E+02    2.000000E+01    2.000000E+03                     p    1.000000E+00    0.000000E+00          1
              kr02c18                   log                factor    9.001759E+02    2.000000E+01    2.000000E+03                     p    1.000000E+00    0.000000E+00          1
              kr02c19                   log                factor    3.862928E+02    2.000000E+01    2.000000E+03                     p    1.000000E+00    0.000000E+00          1
              kr02c20                   log                factor    1.611094E+02    2.000000E+01    2.000000E+03                     p    1.000000E+00    0.000000E+00          1
              kr02c21                   log                factor    1.026142E+02    2.000000E+01    2.000000E+03                     p    1.000000E+00    0.000000E+00          1
              kr02c22                   log                factor    3.479671E+02    2.000000E+01    2.000000E+03                     p    1.000000E+00    0.000000E+00          1
              kr02c23                   log                factor    3.428751E+02    2.000000E+01    2.000000E+03                     p    1.000000E+00    0.000000E+00          1
              kr02c24                   log                factor    1.027208E+02    2.000000E+01    2.000000E+03                     p    1.000000E+00    0.000000E+00          1
              kr02c25                   log                factor    5.398673E+01    2.000000E+01    2.000000E+03                     p    1.000000E+00    0.000000E+00          1
              kr02c26                   log                factor    6.577342E+01    2.000000E+01    2.000000E+03                     p    1.000000E+00    0.000000E+00          1
              kr02c27                   log                factor    3.307446E+02    2.000000E+01    2.000000E+03                     p    1.000000E+00    0.000000E+00          1
              kr02c28                   log                factor    5.780733E+01    2.000000E+01    2.000000E+03                     p    1.000000E+00    0.000000E+00          1
              kr02c29                   log                factor    4.330601E+02    2.000000E+01    2.000000E+03                     p    1.000000E+00    0.000000E+00          1
              kr02c30                   log                factor    1.530191E+02    2.000000E+01    2.000000E+03                     p    1.000000E+00    0.000000E+00          1
              kr02c31                   log                factor    1.747056E+02    2.000000E+01    2.000000E+03                     p    1.000000E+00    0.000000E+00          1
              kr02c32                   log                factor    4.152351E+02    2.000000E+01    2.000000E+03                     p    1.000000E+00    0.000000E+00          1
              kr02c33                   log                factor    2.346747E+02    2.000000E+01    2.000000E+03                     p    1.000000E+00    0.000000E+00          1
              kr02c34                   log                factor    8.314130E+01    2.000000E+01    2.000000E+03                     p    1.000000E+00    0.000000E+00          1
              kr02c35                   log                factor    3.696660E+02    2.000000E+01    2.000000E+03                     p    1.000000E+00    0.000000E+00          1
              kr02c36                   log                factor    6.011096E+02    2.000000E+01    2.000000E+03                     p    1.000000E+00    0.000000E+00          1
              kr02c37                   log                factor    1.027517E+02    2.000000E+01    2.000000E+03                     p    1.000000E+00    0.000000E+00          1
              kr02c38                   log                factor    7.604396E+02    2.000000E+01    2.000000E+03                     p    1.000000E+00    0.000000E+00          1
              kr02c39                   log                factor    1.340222E+02    2.000000E+01    2.000000E+03                     p    1.000000E+00    0.000000E+00          1
              kr02c40                   log                factor    7.823237E+02    2.000000E+01    2.000000E+03                     p    1.000000E+00    0.000000E+00          1
              kr02c41                   log                factor    1.922073E+02    2.000000E+01    2.000000E+03                     p    1.000000E+00    0.000000E+00          1
              kr02c42                   log                factor    4.100089E+02    2.000000E+01    2.000000E+03                     p    1.000000E+00    0.000000E+00          1
              kr02c43                   log                factor    4.491745E+02    2.000000E+01    2.000000E+03                     p    1.000000E+00    0.000000E+00          1
              kr02c44                   log                factor    8.904106E+01    2.000000E+01    2.000000E+03                     p    1.000000E+00    0.000000E+00          1
              kr02c45                   log                factor    8.205498E+02    2.000000E+01    2.000000E+03                     p    1.000000E+00    0.000000E+00          1
              kr02c46                   log                factor    1.187594E+01    2.000000E+01    2.000000E+03                     p    1.000000E+00    0.000000E+00          1
              kr02c47                   log                factor    4.253316E+02    2.000000E+01    2.000000E+03                     p    1.000000E+00    0.000000E+00          1
              kr02c48                   log                factor    1.053671E+02    2.000000E+01    2.000000E+03                     p    1.000000E+00    0.000000E+00          1
              kr02c49                   log                factor    1.457862E+02    2.000000E+01    2.000000E+03                     p    1.000000E+00    0.000000E+00          1
              kr02c50                   log                factor    5.041412E+01    2.000000E+01    2.000000E+03                     p    1.000000E+00    0.000000E+00          1
              kr02c51                   log                factor    2.246618E+02    2.000000E+01    2.000000E+03                     p    1.000000E+00    0.000000E+00          1
              kr02c52                   log                factor    2.336763E+02    2.000000E+01    2.000000E+03                     p    1.000000E+00    0.000000E+00          1
              kr02c53                   log                factor    1.093991E+03    2.000000E+01    2.000000E+03                     p    1.000000E+00    0.000000E+00          1
              kr02c54                   log                factor    1.937045E+02    2.000000E+01    2.000000E+03                     p    1.000000E+00    0.000000E+00          1
              kr02c55                   log                factor    1.231111E+02    2.000000E+01    2.000000E+03                     p    1.000000E+00    0.000000E+00          1
              kr02c56                   log                factor    7.948672E+02    2.000000E+01    2.000000E+03                     p    1.000000E+00    0.000000E+00          1
              kr02c57                   log                factor    3.842784E+02    2.000000E+01    2.000000E+03                     p    1.000000E+00    0.000000E+00          1
              kr02c58                   log                factor    9.292348E+02    2.000000E+01    2.000000E+03                     p    1.000000E+00    0.000000E+00          1
              kr02c59                   log                factor    2.440078E+02    2.000000E+01    2.000000E+03                     p    1.000000E+00    0.000000E+00          1
              kr02c60                   log                factor    3.348777E+02    2.000000E+01    2.000000E+03                     p    1.000000E+00    0.000000E+00          1
              kr03c01                   log                factor    2.259540E+02    2.000000E+01    2.000000E+03                     p    1.000000E+00    0.000000E+00          1
              kr03c02                   log                factor    2.648431E+02    2.000000E+01    2.000000E+03                     p    1.000000E+00    0.000000E+00          1
              kr03c03                   log                factor    3.845376E+02    2.000000E+01    2.000000E+03                     p    1.000000E+00    0.000000E+00          1
              kr03c04                   log                factor    1.289899E+02    2.000000E+01    2.000000E+03                     p    1.000000E+00    0.000000E+00          1
              kr03c05                   log                factor    1.812086E+02    2.000000E+01    2.000000E+03                     p    1.000000E+00    0.000000E+00          1
              kr03c06                   log                factor    1.099022E+02    2.000000E+01    2.000000E+03                     p    1.000000E+00    0.000000E+00          1
              kr03c07                   log                factor    1.016429E+02    2.000000E+01    2.000000E+03                     p    1.000000E+00    0.000000E+00          1
              kr03c08                   log                factor    1.313865E+02    2.000000E+01    2.000000E+03                     p    1.000000E+00    0.000000E+00          1
              kr03c09                   log                factor    1.372815E+01    2.000000E+01    2.000000E+03                     p    1.000000E+00    0.000000E+00          1
              kr03c10                   log                factor    5.198187E+02    2.000000E+01    2.000000E+03                     p    1.000000E+00    0.000000E+00          1
              kr03c11                   log                factor    1.766233E+02    2.000000E+01    2.000000E+03                     p    1.000000E+00    0.000000E+00          1
              kr03c12                   log                factor    2.287025E+02    2.000000E+01    2.000000E+03                     p    1.000000E+00    0.000000E+00          1
              kr03c13                   log                factor    1.351070E+01    2.000000E+01    2.000000E+03                     p    1.000000E+00    0.000000E+00          1
              kr03c14                   log                factor    5.622655E+02    2.000000E+01    2.000000E+03                     p    1.000000E+00    0.000000E+00          1
              kr03c15                   log                factor    2.463275E+02    2.000000E+01    2.000000E+03                     p    1.000000E+00    0.000000E+00          1
              kr03c16                   log                factor    4.317172E+02    2.000000E+01    2.000000E+03                     p    1.000000E+00    0.000000E+00          1
              kr03c17                   log                factor    6.924937E+01    2.000000E+01    2.000000E+03                     p    1.000000E+00    0.000000E+00          1
              kr03c18                   log                factor    8.296618E+02    2.000000E+01    2.000000E+03                     p    1.000000E+00    0.000000E+00          1
              kr03c19                   log                factor    6.483524E+02    2.000000E+01    2.000000E+03                     p    1.000000E+00    0.000000E+00          1
              kr03c20                   log                factor    1.946070E+02    2.000000E+01    2.000000E+03                     p    1.000000E+00    0.000000E+00          1
              kr03c21                   log                factor    3.870131E+02    2.000000E+01    2.000000E+03                     p    1.000000E+00    0.000000E+00          1
              kr03c22                   log                factor    3.836266E+02    2.000000E+01    2.000000E+03                     p    1.000000E+00    0.000000E+00          1
              kr03c23                   log                factor    2.648755E+02    2.000000E+01    2.000000E+03                     p    1.000000E+00    0.000000E+00          1
              kr03c24                   log                factor    2.275025E+03    2.000000E+01    2.000000E+03                     p    1.000000E+00    0.000000E+00          1
              kr03c25                   log                factor    1.436839E+02    2.000000E+01    2.000000E+03                     p    1.000000E+00    0.000000E+00          1
              kr03c26                   log                factor    3.080335E+02    2.000000E+01    2.000000E+03                     p    1.000000E+00    0.000000E+00          1
              kr03c27                   log                factor    2.362759E+02    2.000000E+01    2.000000E+03                     p    1.000000E+00    0.000000E+00          1
              kr03c28                   log                factor    1.270099E+02    2.000000E+01    2.000000E+03                     p    1.000000E+00    0.000000E+00          1
              kr03c29                   log                factor    2.242186E+02    2.000000E+01    2.000000E+03                     p    1.000000E+00    0.000000E+00          1
              kr03c30                   log                factor    2.678332E+02    2.000000E+01    2.000000E+03                     p    1.000000E+00    0.000000E+00          1
              kr03c31                   log                factor    2.407833E+02    2.000000E+01    2.000000E+03                     p    1.000000E+00    0.000000E+00          1
              kr03c32                   log                factor    5.335151E+01    2.000000E+01    2.000000E+03                     p    1.000000E+00    0.000000E+00          1
              kr03c33                   log                factor    1.664921E+02    2.000000E+01    2.000000E+03                     p    1.000000E+00    0.000000E+00          1
              kr03c34                   log                factor    1.194278E+02    2.000000E+01    2.000000E+03                     p    1.000000E+00    0.000000E+00          1
              kr03c35                   log                factor    3.346597E+02    2.000000E+01    2.000000E+03                     p    1.000000E+00    0.000000E+00          1
              kr03c36                   log                factor    6.939803E+01    2.000000E+01    2.000000E+03                     p    1.000000E+00    0.000000E+00          1
              kr03c37                   log                factor    1.446186E+02    2.000000E+01    2.000000E+03                     p    1.000000E+00    0.000000E+00          1
              kr03c38                   log                factor    6.247474E+01    2.000000E+01    2.000000E+03                     p    1.000000E+00    0.000000E+00          1
              kr03c39                   log                factor    1.286612E+02    2.000000E+01    2.000000E+03                     p    1.000000E+00    0.000000E+00          1