pcf
* control data
             restart          estimation
       601        75         2         0         3         0
         2         5              single               point         1         0         0            noobsref
   1.000000E+01   2.000000E+00   3.000000E-01   3.000000E-02        10       999          lamforgive        noderforgive
   3.000000E+00   3.000000E+00   1.000000E-03         0         0
   1.000000E-01         1   1.100000E+00               noaui          nosenreuse        noboundscale
        -1   5.000000E-03         4         4   1.000000E-03         4   0.000000E+00         1  -1.000000E+00
         1         1         1         0             jcosave          verboserec          jcosaveitn          reisaveitn          parsaveitn        noparsaverun
* singular value decomposition
1
75  1.0e-7
1  0  0
* parameter groups
                    p              relative    1.000000E-02  0                switch    2.000000E+00             parabolic    1.000000E-05    5.000000E-01               smaller
                    m              relative    1.000000E-02  0                switch    2.000000E+00             parabolic    1.000000E-05    5.000000E-01               smaller
* parameter data
                mult1                   log                factor    4.908997E-01    2.500000E-01    2.500000E+00                     m    1.000000E+00    0.000000E+00          1
              kr01c01                   log                factor    1.418759E+02    2.000000E+01    2.000000E+03                     p    1.000000E+00    0.000000E+00          1
              kr01c02                   log                factor    8.522829E+02    2.000000E+01    2.000000E+03                     p    1.000000E+00    0.000000E+00          1
              kr01c03                   log                factor    4.457592E+01    2.000000E+01    2.000000E+03                     p    1.000000E+00    0.000000E+00          1
              kr01c04                   log                factor    2.944817E+02    2.000000E+01    2.000000E+03                     p    1.000000E+00    0.000000E+00          1
              kr01c05                   log                factor    1.386381E+02    2.000000E+01    2.000000E+03                     p    1.000000E+00    0.000000E+00          1
              kr01c06                   log                factor    1.450534E+02    2.000000E+01    2.000000E+03                     p    1.000000E+00    0.000000E+00          1
              kr01c07                   log                factor    3.503207E+02    2.000000E+01    2.000000E+03                     p    1.000000E+00    0.000000E+00          1
              kr01c08                   log                factor    2.420882E+02    2.000000E+01    2.000000E+03                     p    1.000000E+00    0.000000E+00          1
              kr01c09                   log                factor    1.194138E+02    2.000000E+01    2.000000E+03                     p    1.000000E+00    0.000000E+00          1
              kr01c10                   log                factor    3.678124E+01    2.000000E+01    2.000000E+03                     p    1.000000E+00    0.000000E+00          1
              kr01c11                   log                factor    8.169814E+01    2.000000E+01    2.000000E+03                     p    1.000000E+00    0.000000E+00          1
              kr01c12                   log                factor    6.316370E+01    2.000000E+01    2.000000E+03                     p    1.000000E+00    0.000000E+00          1
              kr01c13                   log                factor    1.374858E+02    2.000000E+01    2.000000E+03                     p    1.000000E+00    0.000000E+00          1
              kr01c14                   log                factor    7.651411E+01    2.000000E+01    2.000000E+03                     p    1.000000E+00    0.000000E+00          1
              kr01c15                   log                factor    3.959451E+02    2.000000E+01    2.000000E+03                     p    1.000000E+00    0.000000E+00          1
              kr01c16                   log                factor    4.116277E+02    2.000000E+01    2.000000E+03                     p    1.000000E+00    0.000000E+00          1
              kr01c17                   log                factor    9.695618E+02    2.000000E+01    2.000000E+03                     p    1.000000E+00    0.000000E+00          1
              kr01c18                   log                factor    1.792498E+02    2.000000E+01    2.000000E+03                     p    1.000000E+00    0.000000E+00          1
              kr01c19                   log                factor    2.950770E+02    2.000000E+01    2.000000E+03                     p    1.000000E+00    0.000000E+00          1
              kr01c20                   log                factor    1.168552E+03    2.000000E+01    2.000000E+03                     p    1.000000E+00    0.000000E+00          1
              kr01c21                   log                factor    6.370359E+01    2.000000E+01    2.000000E+03                     p    1.000000E+00    0.000000E+00          1
              kr01c22                   log                factor    1.509205E+02    2.000000E+01    2.000000E+03                     p    1.000000E+00    0.000000E+00          1
              kr01c23                   log                factor    7.305545E+01    2.000000E+01    2.000000E+03                     p    1.000000E+00    0.000000E+00          1
              kr01c24                   log                factor    2.796521E+02    2.000000E+01    2.000000E+03                     p    1.000000E+00    0.000000E+00          1
              kr01c25                   log                factor    7.128638E+02    2.000000E+01    2.000000E+03                     p    1.000000E+00    0.000000E+00          1
              kr01c26                   log                factor    9.703198E+01    2.000000E+01    2.000000E+03                     p    1.000000E+00    0.000000E+00          1
              kr01c27                   log                factor    4.270867E+02    2.000000E+01    2.000000E+03                     p    1.000000E+00    0.000000E+00          1
              kr01c28                   log                factor    3.610814E+02    2.000000E+01    2.000000E+03                     p    1.000000E+00    0.000000E+00          1
              kr01c29                   log                factor    3.239120E+02    2.000000E+01    2.000000E+03                     p    1.000000E+00    0.000000E+00          1
              kr01c30                   log                factor    2.338617E+02    2.000000E+01    2.000000E+03                     p    1.000000E+00    0.000000E+00          1
              kr01c31                   log                factor    3.386738E+02    2.000000E+01    2.000000E+03                     p    1.000000E+00    0.000000E+00          1
              kr01c32                   log                factor    1.149445E+02    2.000000E+01    2.000000E+03                     p    1.000000E+00    0.000000E+00          1
              kr01c33                   log                factor    2.428418E+03    2.000000E+01    2.000000E+03                     p    1.000000E+00    0.000000E+00          1
              kr01c34                   log                factor    3.577872E+02    2.000000E+01    2.000000E+03                     p    1.000000E+00    0.000000E+00          1
              kr01c35                   log                factor    8.681137E+01    2.000000E+01    2.000000E+03                     p    1.000000E+00    0.000000E+00          1
              kr01c36                   log                factor    2.087633E+02    2.000000E+01    2.000000E+03                     p    1.000000E+00    0.000000E+00          1
              kr01c37                   log                factor    3.054172E+02    2.000000E+01    2.000000E+03                     p    1.000000E+00    0.000000E+00          1
              kr01c38                   log                factor    2.308615E+02    2.000000E+01    2.000000E+03                     p    1.000000E+00    0.000000E+00          1
              kr01c39                   log                factor    4.220182E+02    2.000000E+01    2.000000E+03                     p    1.000000E+00    0.000000E+00          1
              kr01c40                   log                factor    7.846206E+02    2.000000E+01    2.000000E+03                     p    1.000000E+00    0.000000E+00          1
              kr01c41                   log                factor    2.252512E+02    2.000000E+01    2.000000E+03                     p    1.000000E+00    0.000000E+00          1
              kr01c42                   log                factor    1.996476E+01    2.000000E+01    2.000000E+03                     p    1.000000E+00    0.000000E+00          1
              kr01c43                   log                factor    1.122151E+02    2.000000E+01    2.000000E+03                     p    1.000000E+00    0.000000E+00          1
              kr01c44                   log                factor    3.749241E+02    2.000000E+01    2.000000E+03                     p    1.000000E+00    0.000000E+00          1
              kr01c45                   log                factor    7.544450E+02    2.000000E+01    2.000000E+03                     p    1.000000E+00    0.000000E+00          1
              kr01c46                   log                factor    4.475807E+01    2.000000E+01    2.000000E+03                     p    1.000000E+00    0.000000E+00          1
              kr01c47                   log                factor    1.178081E+02    2.000000E+01    2.000000E+03                     p    1.000000E+00    0.000000E+00          1
              kr01c48                   log                factor    3.306252E+02    2.000000E+01    2.000000E+03                     p    1.000000E+00    0.000000E+00          1
              kr01c49                   log                factor    1.382270E+02    2.000000E+01    2.000000E+03                     p    1.000000E+00    0.000000E+00          1
              kr01c50                   log                factor    2.483068E+02    2.000000E+01    2.000000E+03                     p    1.000000E+00    0.000000E+00          1
              kr01c51                   log                factor    3.239228E+02    2.000000E+01    2.000000E+03                     p    1.000000E+00    0.000000E+00          1
              kr01c52                   log                factor    6.065370E+01    2.000000E+01    2.000000E+03                     p    1.000000E+00    0.000000E+00          1
              kr01c53                   log                factor    5.041195E+02    2.000000E+01    2.000000E+03                     p    1.000000E+00    0.000000E+00          1
              kr01c54                   log                factor    6.185328E+02    2.000000E+01    2.000000E+03                     p    1.000000E+00    0.000000E+00          1
              kr01c55                   log                factor    5.174766E+02    2.000000E+01    2.000000E+03                     p    1.000000E+00    0.000000E+00          1
              kr01c56                   log                factor    7.690009E+01    2.000000E+01    2.000000E+03                     p    1.000000E+00    0.000000E+00          1
              kr01c57                   log                factor    3.997031E+03    2.000000E+01    2.000000E+03                     p    1.000000E+00    0.000000E+00          1
              kr01c58                   log                factor    4.024868E+02    2.000000E+01    2.000000E+03                     p    1.000000E+00    0.000000E+00          1
              kr01c59                   log                factor    1.030244E+02    2.000000E+01    2.000000E+03                     p    1.000000E+00    0.000000E+00          1
              kr01c60                   log                factor    3.028975E+02    2.000000E+01    2.000000E+03                     p    1.000000E+00    0.000000E+00          1
              kr02c01                   log                factor    3.234540E+02    2.000000E+01    2.000000E+03                     p    1.000000E+00    0.000000E+00          1
              kr02c02                   log                factor    2.658549E+01    2.000000E+01    2.000000E+03                     p    1.000000E+00    0.000000E+00          1
              kr02c03                   log                factor    4.238129E+01    2.000000E+01    2.000000E+03                     p    1.000000E+00    0.000000E+00          1
              kr02c04                   log                factor    3.129662E+01    2.000000E+01    2.000000E+03                     p    1.000000E+00    0.000000E+00          1
              kr02c05                   log                factor    6.144749E+02    2.000000E+01    2.000000E+03                     p    1.000000E+00    0.000000E+00          1
              kr02c06                   log                factor    8.240552E+01    2.000000E+01    2.000000E+03                     p    1.000000E+00    0.000000E+00          1
              kr02c07                   log                factor    8.309831E+01    2.000000E+01    2.000000E+03                     p    1.000000E+00    0.000000E+00          1
              kr02c08                   log                factor    8.901385E+01    2.000000E+01    2.000000E+03                     p    1.000000E+00    0.000000E+00          1
              kr02c09                   log                factor    3.280712E+02    2.000000E+01    2.000000E+03                     p    1.000000E+00    0.000000E+00          1
              kr02c10                   log                factor    1.127079E+02    2.000000E+01    2.000000E+03                     p    1.000000E+00    0.000000E+00          1
              kr02c11                   log                factor    1.314483E+02    2.000000E+01    2.000000E+03                     p    1.000000E+00    0.000000E+00          1
              kr02c12                   log                factor    2.084722E+02    2.000000E+01    2.000000E+03                     p    1.000000E+00    0.000000E+00          1
              kr02c13                   log                factor    2.890303E+02    2.000000E+01    2.000000E+03                     p    1.000000E+00    0.000000E+00          1
              kr02c14                   log                factor    1.290590E+02    2.000000E+01    2.000000E+03                     p    1.000000E+00    0.000000E+00          1
              kr02c15                   log                factor    1.748054E+02    2.000000E+01    2.000000E+03                     p    1.000000E+00    0.000000E+00          1
              kr02c16                   log                factor    2.460235E+03    2.000000E+01    2.000000E+03                     p    1.000000E+00    0.000000E+00          1
              kr02c17                   log                factor    1.165682E+02    2.000000E+01    2.000000E+03                     p    1.000000E+00    0.000000E+00          1
              kr02c18                   log                factor    7.354137E+01    2.000000E+01    2.000000E+03                     p    1.000000E+00    0.000000E+00          1
              kr02c19                   log                factor    1.020927E+01    2.000000E+01    2.000000E+03                     p    1.000000E+00    0.000000E+00          1
              kr02c20                   log                factor    5.247919E+01    2.000000E+01    2.000000E+03                     p    1.000000E+00    0.000000E+00          1
              kr02c21                   log                factor    9.299944E+01    2.000000E+01    2.000000E+03                     p    1.000000E+00    0.000000E+00          1
              kr02c22                   log                factor    1.477076E+02    2.000000E+01    2.000000E+03                     p    1.000000E+00    0.000000E+00          1
              kr02c23                   log                factor    1.624880E+02    2.000000E+01    2.000000E+03                     p    1.000000E+00    0.000000E+00          1
              kr02c24                   log                factor    4.976680E+02    2.000000E+01    2.000000E+03                     p    1.000000E+00    0.000000E+00          1
              kr02c25                   log                factor    7.049992E+02    2.000000E+01    2.000000E+03                     p    1.000000E+00    0.000000E+00          1
              kr02c26                   log                factor    4.837030E+02    2.000000E+01    2.000000E+03                     p    1.000000E+00    0.000000E+00          1
              kr02c27                   log                factor    6.188662E+02    2.000000E+01    2.000000E+03                     p    1.000000E+00    0.000000E+00          1
              kr02c28                   log                factor    6.752814E+01    2.000000E+01    2.000000E+03                     p    1.000000E+00    0.000000E+00          1
              kr02c29                   log                factor    2.744606E+01    2.000000E+01    2.000000E+03                     p    1.000000E+00    0.000000E+00          1
              kr02c30                   log                factor    2.704705E+01    2.000000E+01    2.000000E+03                     p    1.000000E+00    0.000000E+00          1
              kr02c31                   log                factor    8.988951E+01    2.000000E+01    2.000000E+03                     p    1.000000E+00    0.000000E+00          1
              kr02c32                   log                factor    2.236186E+02    2.000000E+01    2.000000E+03                     p    1.000000E+00    0.000000E+00          1
              kr02c33                   log                factor    1.418513E+02    2.000000E+01    2.000000E+03                     p    1.000000E+00    0.000000E+00          1
              kr02c34                   log                factor    1.917998E+03    2.000000E+01    2.000000E+03                     p    1.000000E+00    0.000000E+00          1
              kr02c35                   log                factor    4.122598E+02    2.000000E+01    2.000000E+03                     p    1.000000E+00    0.000000E+00          1
              kr02c36                   log                factor    2.767863E+02    2.000000E+01    2.000000E+03                     p    1.000000E+00    0.000000E+00          1
              kr02c37                   log                factor    6.297777E+01    2.000000E+01    2.000000E+03                     p    1.000000E+00    0.000000E+00          1
              kr02c38                   log                factor    7.956402E+01    2.000000E+01    2.000000E+03                     p    1.000000E+00    0.000000E+00          1
              kr02c39                   log                factor    1.103441E+02    2.000000E+01    2.000000E+03                     p    1.000000E+00    0.000000E+00          1
              kr02c40                   log                factor    3.750405E+02    2.000000E+01    2.000000E+03                     p    1.000000E+00    0.000000E+00          1
              kr02c41                   log                factor    4.675224E+01    2.000000E+01    2.000000E+03                     p    1.000000E+00    0.000000E+00          1
              kr02c42                   log                factor    7.033768E+02    2.000000E+01    2.000000E+03                     p    1.000000E+00    0.000000E+00          1
              kr02c43                   log                factor    1.683322E+02    2.000000E+01    2.000000E+03                     p    1.000000E+00    0.000000E+00          1
              kr02c44                   log                factor    1.870010E+02    2.000000E+01    2.000000E+03                     p    1.000000E+00    0.000000E+00          1
              kr02c45                   log                factor    8.996101E+02    2.000000E+01    2.000000E+03                     p    1.000000E+00    0.000000E+00          1
              kr02c46                   log                factor    2.918134E+02    2.000000E+01    2.000000E+03                     p    1.000000E+00    0.000000E+00          1
              kr02c47                   log                factor    1.832230E+01    2.000000E+01    2.000000E+03                     p    1.000000E+00    0.000000E+00          1
              kr02c48                   log                factor    3.853174E+01    2.000000E+01    2.000000E+03                     p    1.000000E+00    0.000000E+00          1
              kr02c49                   log                factor    6.798278E+01    2.000000E+01    2.000000E+03                     p    1.000000E+00    0.000000E+00          1
              kr02c50                   log                factor    3.021836E+02    2.000000E+01    2.000000E+03                     p    1.000000E+00    0.000000E+00          1
              kr02c51                   log                factor    2.168455E+02    2.000000E+01    2.000000E+03                     p    1.000000E+00    0.000000E+00          1
              kr02c52                   log                factor    5.707691E+02    2.000000E+01    2.000000E+03                     p    1.000000E+00    0.000000E+00          1
              kr02c53                   log                factor    3.360448E+01    2.000000E+01    2.000000E+03                     p    1.000000E+00    0.000000E+00          1
              kr02c54                   log                factor    1.080031E+02    2.000000E+01    2.000000E+03                     p    1.000000E+00    0.000000E+00          1
              kr02c55                   log                factor    1.100088E+02    2.000000E+01    2.000000E+03                     p    1.000000E+00    0.000000E+00          1
              kr02c56                   log                factor    6.425400E+01    2.000000E+01    2.000000E+03                     p    1.000000E+00    0.000000E+00          1
              kr02c57                   log                factor    1.479439E+02    2.000000E+01    2.000000E+03                     p    1.000000E+00    0.000000E+00          1
              kr02c58                   log                factor    7.009645E+01    2.000000E+01    2.000000E+03                     p    1.000000E+00    0.000000E+00          1
              kr02c59                   log                factor    5.212938E+01    2.000000E+01    2.000000E+03                     p    1.000000E+00    0.000000E+00          1
              kr02c60                   log                factor    2.821051E+02    2.000000E+01    2.000000E+03                     p    1.000000E+00    0.000000E+00          1
              kr03c01                   log                factor    2.335065E+02    2.000000E+01    2.000000E+03                     p    1.000000E+00    0.000000E+00          1
              kr03c02                   log                factor    1.641371E+02    2.000000E+01    2.000000E+03                     p    1.000000E+00    0.000000E+00          1
              kr03c03                   log                factor    2.419290E+02    2.000000E+01    2.000000E+03                     p    1.000000E+00    0.000000E+00          1
              kr03c04                   log                factor    1.243237E+02    2.000000E+01    2.000000E+03                     p    1.000000E+00    0.000000E+00          1
              kr03c05                   log                factor    8.473925E+01    2.000000E+01    2.000000E+03                     p    1.000000E+00    0.000000E+00          1
              kr03c06                   log                factor    3.010516E+02    2.000000E+01    2.000000E+03                     p    1.000000E+00    0.000000E+00          1
              kr03c07                   log                factor    6.419505E+02    2.000000E+01    2.000000E+03                     p    1.000000E+00    0.000000E+00          1
              kr03c08                   log                factor    4.499854E+02    2.000000E+01    2.000000E+03                     p    1.000000E+00    0.000000E+00          1
              kr03c09                   log                factor    1.007726E+02    2.000000E+01    2.000000E+03                     p    1.000000E+00    0.000000E+00          1
              kr03c10                   log                factor    9.647639E+00    2.000000E+01    2.000000E+03                     p    1.000000E+00    0.000000E+00          1
              kr03c11                   log                factor    8.876719E+01    2.000000E+01    2.000000E+03                     p    1.000000E+00    0.000000E+00          1
              kr03c12                   log                factor    1.972272E+02    2.000000E+01    2.000000E+03                     p    1.000000E+00    0.000000E+00          1
              kr03c13                   log                factor    1.586862E+01    2.000000E+01    2.000000E+03                     p    1.000000E+00    0.000000E+00          1
              kr03c14                   log                factor    7.495539E+02    2.000000E+01    2.000000E+03                     p    1.000000E+00    0.000000E+00          1
              kr03c15                   log                factor    4.454593E+01    2.000000E+01    2.000000E+03                     p    1.000000E+00    0.000000E+00          1
              kr03c16                   log                factor    8.594045E+01    2.000000E+01    2.000000E+03                     p    1.000000E+00    0.000000E+00          1
              kr03c17                   log                factor    2.332144E+00    2.000000E+01    2.000000E+03                     p    1.000000E+00    0.000000E+00          1
              kr03c18                   log                factor    2.223649E+03    2.000000E+01    2.000000E+03                     p    1.000000E+00    0.000000E+00          1
              kr03c19                   log                factor    6.384745E+02    2.000000E+01    2.000000E+03                     p    1.000000E+00    0.000000E+00          1
              kr03c20                   log                factor    1.606391E+03    2.000000E+01    2.000000E+03                     p    1.000000E+00    0.000000E+00          1
              kr03c21                   log                factor    5.289158E+02    2.000000E+01    2.000000E+03                     p    1.000000E+00    0.000000E+00          1
              kr03c22                   log                factor    4.248822E+02    2.000000E+01    2.000000E+03                     p    1.000000E+00    0.000000E+00          1
              kr03c23                   log                factor    5.219513E+02    2.000000E+01    2.000000E+03                     p    1.000000E+00    0.000000E+00          1
              kr03c24                   log                factor    5.026744E+01    2.000000E+01    2.000000E+03                     p    1.000000E+00    0.000000E+00          1
              kr03c25                   log                factor    2.858250E+03    2.000000E+01    2.000000E+03                     p    1.000000E+00    0.000000E+00          1
              kr03c26                   log                factor    2.023048E+02    2.000000E+01    2.000000E+03                     p    1.000000E+00    0.000000E+00          1
              kr03c27                   log                factor    4.371651E+01    2.000000E+01    2.000000E+03                     p    1.000000E+00    0.000000E+00          1
              kr03c28                   log                factor    6.214496E+01    2.000000E+01    2.000000E+03                     p    1.000000E+00    0.000000E+00          1
              kr03c29                   log                factor    1.584200E+02    2.000000E+01    2.000000E+03                     p    1.000000E+00    0.000000E+00          1
              kr03c30                   log                factor    1.584827E+02    2.000000E+01    2.000000E+03                     p    1.000000E+00    0.000000E+00          1
              kr03c31                   log                factor    3.851300E+01    2.000000E+01    2.000000E+03                     p    1.000000E+00    0.000000E+00          1
              kr03c32                   log                factor    1.760723E+01    2.000000E+01    2.000000E+03                     p    1.000000E+00    0.000000E+00          1
              kr03c33                   log                factor    3.354229E+02    2.000000E+01    2.000000E+03                     p    1.000000E+00    0.000000E+00          1
              kr03c34                   log                factor    4.641451E+00    2.000000E+01    2.000000E+03                     p    1.000000E+00    0.000000E+00          1
              kr03c35                   log                factor    1.984151E+03    2.000000E+01    2.000000E+03                     p    1.000000E+00    0.000000E+00          1
              kr03c36                   log                factor    1.652100E+02    2.000000E+01    2.000000E+03                     p    1.000000E+00    0.000000E+00          1
              kr03c37                   log                factor    1.593957E+03    2.000000E+01    2.000000E+03                     p    1.000000E+00    0.000000E+00          1
              kr03c38                   log                factor    7.605312E+02    2.000000E+01    2.000000E+03                     p    1.000000E+00    0.000000E+00          1
              kr03c39                   log                factor    1.629275E+02    2.000000E+01    2.000000E+03                     p    1.000000E+00    0.000000E+00          1