pcf
* control data
             restart          estimation
       601        75         2         0         3         0
         2         5              single               point         1         0         0            noobsref
   1.000000E+01   2.000000E+00   3.000000E-01   3.000000E-02        10       999          lamforgive        noderforgive
   3.000000E+00   3.000000E+00   1.000000E-03         0         0
   1.000000E-01         1   1.100000E+00               noaui          nosenreuse        noboundscale
        -1   5.000000E-03         4         4   1.000000E-03         4   0.000000E+00         1  -1.000000E+00
         1         1         1         0             jcosave          verboserec          jcosaveitn          reisaveitn          parsaveitn        noparsaverun
* singular value decomposition
1
75  1.0e-7
1  0  0
* parameter groups
                    p              relative    1.000000E-02  0                switch    2.000000E+00             parabolic    1.000000E-05    5.000000E-01               smaller
                    m              relative    1.000000E-02  0                switch    2.000000E+00             parabolic    1.000000E-05    5.000000E-01               smaller
* parameter data
                mult1                   log                factor    2.685440E+00    2.500000E-01    2.500000E+00                     m    1.000000E+00    0.000000E+00          1
              kr01c01                   log                factor    3.709909E+02    2.000000E+01    2.000000E+03                     p    1.000000E+00    0.000000E+00          1
              kr01c02                   log                factor    1.775323E+02    2.000000E+01    2.000000E+03                     p    1.000000E+00    0.000000E+00          1
              kr01c03                   log                factor    5.839267E+01    2.000000E+01    2.000000E+03                     p    1.000000E+00    0.000000E+00          1
              kr01c04                   log                factor    2.090386E+02    2.000000E+01    2.000000E+03                     p    1.000000E+00    0.000000E+00          1
              kr01c05                   log                factor    5.252044E+01    2.000000E+01    2.000000E+03                     p    1.000000E+00    0.000000E+00          1
              kr01c06                   log                factor    8.005316E+01    2.000000E+01    2.000000E+03                     p    1.000000E+00    0.000000E+00          1
              kr01c07                   log                factor    1.252723E+02    2.000000E+01    2.000000E+03                     p    1.000000E+00    0.000000E+00          1
              kr01c08                   log                factor    9.187395E+01    2.000000E+01    2.000000E+03                     p    1.000000E+00    0.000000E+00          1
              kr01c09                   log                factor    7.087639E+01    2.000000E+01    2.000000E+03                     p    1.000000E+00    0.000000E+00          1
              kr01c10                   log                factor    8.057564E+02    2.000000E+01    2.000000E+03                     p    1.000000E+00    0.000000E+00          1
              kr01c11                   log                factor    4.514607E+01    2.000000E+01    2.000000E+03                     p    1.000000E+00    0.000000E+00          1
              kr01c12                   log                factor    1.817135E+02    2.000000E+01    2.000000E+03                     p    1.000000E+00    0.000000E+00          1
              kr01c13                   log                factor    2.454694E+01    2.000000E+01    2.000000E+03                     p    1.000000E+00    0.000000E+00          1
              kr01c14                   log                factor    4.880255E+01    2.000000E+01    2.000000E+03                     p    1.000000E+00    0.000000E+00          1
              kr01c15                   log                factor    1.582194E+02    2.000000E+01    2.000000E+03                     p    1.000000E+00    0.000000E+00          1
              kr01c16                   log                factor    4.446831E+02    2.000000E+01    2.000000E+03                     p    1.000000E+00    0.000000E+00          1
              kr01c17                   log                factor    1.786421E+03    2.000000E+01    2.000000E+03                     p    1.000000E+00    0.000000E+00          1
              kr01c18                   log                factor    2.815477E+02    2.000000E+01    2.000000E+03                     p    1.000000E+00    0.000000E+00          1
              kr01c19                   log                factor    1.504994E+02    2.000000E+01    2.000000E+03                     p    1.000000E+00    0.000000E+00          1
              kr01c20                   log                factor    1.373982E+02    2.000000E+01    2.000000E+03                     p    1.000000E+00    0.000000E+00          1
              kr01c21                   log                factor    2.611799E+02    2.000000E+01    2.000000E+03                     p    1.000000E+00    0.000000E+00          1
              kr01c22                   log                factor    2.452264E+02    2.000000E+01    2.000000E+03                     p    1.000000E+00    0.000000E+00          1
              kr01c23                   log                factor    7.557442E+01    2.000000E+01    2.000000E+03                     p    1.000000E+00    0.000000E+00          1
              kr01c24                   log                factor    1.012716E+02    2.000000E+01    2.000000E+03                     p    1.000000E+00    0.000000E+00          1
              kr01c25                   log                factor    4.184490E+01    2.000000E+01    2.000000E+03                     p    1.000000E+00    0.000000E+00          1
              kr01c26                   log                factor    8.439897E+01    2.000000E+01    2.000000E+03                     p    1.000000E+00    0.000000E+00          1
              kr01c27                   log                factor    1.542169E+02    2.000000E+01    2.000000E+03                     p    1.000000E+00    0.000000E+00          1
              kr01c28                   log                factor    9.157630E+02    2.000000E+01    2.000000E+03                     p    1.000000E+00    0.000000E+00          1
              kr01c29                   log                factor    6.620601E+01    2.000000E+01    2.000000E+03                     p    1.000000E+00    0.000000E+00          1
              kr01c30                   log                factor    2.468048E+02    2.000000E+01    2.000000E+03                     p    1.000000E+00    0.000000E+00          1
              kr01c31                   log                factor    7.835246E+01    2.000000E+01    2.000000E+03                     p    1.000000E+00    0.000000E+00          1
              kr01c32                   log                factor    2.804288E+02    2.000000E+01    2.000000E+03                     p    1.000000E+00    0.000000E+00          1
              kr01c33                   log                factor    1.875352E+03    2.000000E+01    2.000000E+03                     p    1.000000E+00    0.000000E+00          1
              kr01c34                   log                factor    1.158647E+02    2.000000E+01    2.000000E+03                     p    1.000000E+00    0.000000E+00          1
              kr01c35                   log                factor    4.409114E+02    2.000000E+01    2.000000E+03                     p    1.000000E+00    0.000000E+00          1
              kr01c36                   log                factor    2.262845E+02    2.000000E+01    2.000000E+03                     p    1.000000E+00    0.000000E+00          1
              kr01c37                   log                factor    4.847259E+02    2.000000E+01    2.000000E+03                     p    1.000000E+00    0.000000E+00          1
              kr01c38                   log                factor    2.925626E+02    2.000000E+01    2.000000E+03                     p    1.000000E+00    0.000000E+00          1
              kr01c39                   log                factor    9.310014E+01    2.000000E+01    2.000000E+03                     p    1.000000E+00    0.000000E+00          1
              kr01c40                   log                factor    5.745212E+01    2.000000E+01    2.000000E+03                     p    1.000000E+00    0.000000E+00          1
              kr01c41                   log                factor    2.886470E+02    2.000000E+01    2.000000E+03                     p    1.000000E+00    0.000000E+00          1
              kr01c42                   log                factor    2.120458E+02    2.000000E+01    2.000000E+03                     p    1.000000E+00    0.000000E+00          1
              kr01c43                   log                factor    1.587076E+02    2.000000E+01    2.000000E+03                     p    1.000000E+00    0.000000E+00          1
              kr01c44                   log                factor    5.287078E+01    2.000000E+01    2.000000E+03                     p    1.000000E+00    0.000000E+00          1
              kr01c45                   log                factor    7.439366E+02    2.000000E+01    2.000000E+03                     p    1.000000E+00    0.000000E+00          1
              kr01c46                   log                factor    3.497048E+02    2.000000E+01    2.000000E+03                     p    1.000000E+00    0.000000E+00          1
              kr01c47                   log                factor    1.141534E+02    2.000000E+01    2.000000E+03                     p    1.000000E+00    0.000000E+00          1
              kr01c48                   log                factor    1.334399E+02    2.000000E+01    2.000000E+03                     p    1.000000E+00    0.000000E+00          1
              kr01c49                   log                factor    1.497667E+02    2.000000E+01    2.000000E+03                     p    1.000000E+00    0.000000E+00          1
              kr01c50                   log                factor    1.058119E+03    2.000000E+01    2.000000E+03                     p    1.000000E+00    0.000000E+00          1
              kr01c51                   log                factor    2.650277E+02    2.000000E+01    2.000000E+03                     p    1.000000E+00    0.000000E+00          1
              kr01c52                   log                factor    1.348340E+03    2.000000E+01    2.000000E+03                     p    1.000000E+00    0.000000E+00          1
              kr01c53                   log                factor    4.618283E+02    2.000000E+01    2.000000E+03                     p    1.000000E+00    0.000000E+00          1
              kr01c54                   log                factor    9.094272E+01    2.000000E+01    2.000000E+03                     p    1.000000E+00    0.000000E+00          1
              kr01c55                   log                factor    1.706454E+02    2.000000E+01    2.000000E+03                     p    1.000000E+00    0.000000E+00          1
              kr01c56                   log                factor    1.873610E+02    2.000000E+01    2.000000E+03                     p    1.000000E+00    0.000000E+00          1
              kr01c57                   log                factor    1.791877E+02    2.000000E+01    2.000000E+03                     p    1.000000E+00    0.000000E+00          1
              kr01c58                   log                factor    8.276405E+01    2.000000E+01    2.000000E+03                     p    1.000000E+00    0.000000E+00          1
              kr01c59                   log                factor    3.469229E+02    2.000000E+01    2.000000E+03                     p    1.000000E+00    0.000000E+00          1
              kr01c60                   log                factor    1.724793E+02    2.000000E+01    2.000000E+03                     p    1.000000E+00    0.000000E+00          1
              kr02c01                   log                factor    8.648539E+01    2.000000E+01    2.000000E+03                     p    1.000000E+00    0.000000E+00          1
              kr02c02                   log                factor    8.475114E+01    2.000000E+01    2.000000E+03                     p    1.000000E+00    0.000000E+00          1
              kr02c03                   log                factor    1.720120E+02    2.000000E+01    2.000000E+03                     p    1.000000E+00    0.000000E+00          1
              kr02c04                   log                factor    3.465809E+02    2.000000E+01    2.000000E+03                     p    1.000000E+00    0.000000E+00          1
              kr02c05                   log                factor    1.248081E+02    2.000000E+01    2.000000E+03                     p    1.000000E+00    0.000000E+00          1
              kr02c06                   log                factor    3.285069E+01    2.000000E+01    2.000000E+03                     p    1.000000E+00    0.000000E+00          1
              kr02c07                   log                factor    2.830636E+02    2.000000E+01    2.000000E+03                     p    1.000000E+00    0.000000E+00          1
              kr02c08                   log                factor    7.314306E+01    2.000000E+01    2.000000E+03                     p    1.000000E+00    0.000000E+00          1
              kr02c09                   log                factor    7.777396E+02    2.000000E+01    2.000000E+03                     p    1.000000E+00    0.000000E+00          1
              kr02c10                   log                factor    1.598096E+01    2.000000E+01    2.000000E+03                     p    1.000000E+00    0.000000E+00          1
              kr02c11                   log                factor    7.710546E+02    2.000000E+01    2.000000E+03                     p    1.000000E+00    0.000000E+00          1
              kr02c12                   log                factor    1.656490E+03    2.000000E+01    2.000000E+03                     p    1.000000E+00    0.000000E+00          1
              kr02c13                   log                factor    9.008457E+01    2.000000E+01    2.000000E+03                     p    1.000000E+00    0.000000E+00          1
              kr02c14                   log                factor    1.010098E+02    2.000000E+01    2.000000E+03                     p    1.000000E+00    0.000000E+00          1
              kr02c15                   log                factor    1.127711E+02    2.000000E+01    2.000000E+03                     p    1.000000E+00    0.000000E+00          1
              kr02c16                   log                factor    1.512714E+02    2.000000E+01    2.000000E+03                     p    1.000000E+00    0.000000E+00          1
              kr02c17                   log                factor    1.736075E+02    2.000000E+01    2.000000E+03                     p    1.000000E+00    0.000000E+00          1
              kr02c18                   log                factor    1.175333E+02    2.000000E+01    2.000000E+03                     p    1.000000E+00    0.000000E+00          1
              kr02c19                   log                factor    5.303352E+02    2.000000E+01    2.000000E+03                     p    1.000000E+00    0.000000E+00          1
              kr02c20                   log                factor    2.751340E+02    2.000000E+01    2.000000E+03                     p    1.000000E+00    0.000000E+00          1
              kr02c21                   log                factor    3.058448E+02    2.000000E+01    2.000000E+03                     p    1.000000E+00    0.000000E+00          1
              kr02c22                   log                factor    8.139638E+01    2.000000E+01    2.000000E+03                     p    1.000000E+00    0.000000E+00          1
              kr02c23                   log                factor    3.248327E+01    2.000000E+01    2.000000E+03                     p    1.000000E+00    0.000000E+00          1
              kr02c24                   log                factor    5.510958E+02    2.000000E+01    2.000000E+03                     p    1.000000E+00    0.000000E+00          1
              kr02c25                   log                factor    3.685667E+02    2.000000E+01    2.000000E+03                     p    1.000000E+00    0.000000E+00          1
              kr02c26                   log                factor    4.881253E+01    2.000000E+01    2.000000E+03                     p    1.000000E+00    0.000000E+00          1
              kr02c27                   log                factor    7.919603E+01    2.000000E+01    2.000000E+03                     p    1.000000E+00    0.000000E+00          1
              kr02c28                   log                factor    1.032726E+02    2.000000E+01    2.000000E+03                     p    1.000000E+00    0.000000E+00          1
              kr02c29                   log                factor    4.510988E+02    2.000000E+01    2.000000E+03                     p    1.000000E+00    0.000000E+00          1
              kr02c30                   log                factor    1.824063E+02    2.000000E+01    2.000000E+03                     p    1.000000E+00    0.000000E+00          1
              kr02c31                   log                factor    1.891521E+02    2.000000E+01    2.000000E+03                     p    1.000000E+00    0.000000E+00          1
              kr02c32                   log                factor    6.260659E+02    2.000000E+01    2.000000E+03                     p    1.000000E+00    0.000000E+00          1
              kr02c33                   log                factor    9.525826E+02    2.000000E+01    2.000000E+03                     p    1.000000E+00    0.000000E+00          1
              kr02c34                   log                factor    5.988541E+02    2.000000E+01    2.000000E+03                     p    1.000000E+00    0.000000E+00          1
              kr02c35                   log                factor    8.987154E+02    2.000000E+01    2.000000E+03                     p    1.000000E+00    0.000000E+00          1
              kr02c36                   log                factor    4.793580E+02    2.000000E+01    2.000000E+03                     p    1.000000E+00    0.000000E+00          1
              kr02c37                   log                factor    3.722981E+02    2.000000E+01    2.000000E+03                     p    1.000000E+00    0.000000E+00          1
              kr02c38                   log                factor    1.249991E+01    2.000000E+01    2.000000E+03                     p    1.000000E+00    0.000000E+00          1
              kr02c39                   log                factor    1.599927E+02    2.000000E+01    2.000000E+03                     p    1.000000E+00    0.000000E+00          1
              kr02c40                   log                factor    3.865436E+02    2.000000E+01    2.000000E+03                     p    1.000000E+00    0.000000E+00          1
              kr02c41                   log                factor    3.468617E+02    2.000000E+01    2.000000E+03                     p    1.000000E+00    0.000000E+00          1
              kr02c42                   log                factor    1.032618E+01    2.000000E+01    2.000000E+03                     p    1.000000E+00    0.000000E+00          1
              kr02c43                   log                factor    1.104976E+02    2.000000E+01    2.000000E+03                     p    1.000000E+00    0.000000E+00          1
              kr02c44                   log                factor    6.263872E+01    2.000000E+01    2.000000E+03                     p    1.000000E+00    0.000000E+00          1
              kr02c45                   log                factor    4.887370E+02    2.000000E+01    2.000000E+03                     p    1.000000E+00    0.000000E+00          1
              kr02c46                   log                factor    7.555793E+01    2.000000E+01    2.000000E+03                     p    1.000000E+00    0.000000E+00          1
              kr02c47                   log                factor    1.732180E+01    2.000000E+01    2.000000E+03                     p    1.000000E+00    0.000000E+00          1
              kr02c48                   log                factor    3.303888E+01    2.000000E+01    2.000000E+03                     p    1.000000E+00    0.000000E+00          1
              kr02c49                   log                factor    1.931108E+02    2.000000E+01    2.000000E+03                     p    1.000000E+00    0.000000E+00          1
              kr02c50                   log                factor    1.243586E+02    2.000000E+01    2.000000E+03                     p    1.000000E+00    0.000000E+00          1
              kr02c51                   log                factor    1.475174E+01    2.000000E+01    2.000000E+03                     p    1.000000E+00    0.000000E+00          1
              kr02c52                   log                factor    6.208126E+01    2.000000E+01    2.000000E+03                     p    1.000000E+00    0.000000E+00          1
              kr02c53                   log                factor    1.895887E+02    2.000000E+01    2.000000E+03                     p    1.000000E+00    0.000000E+00          1
              kr02c54                   log                factor    5.896260E+02    2.000000E+01    2.000000E+03                     p    1.000000E+00    0.000000E+00          1
              kr02c55                   log                factor    7.146321E+01    2.000000E+01    2.000000E+03                     p    1.000000E+00    0.000000E+00          1
              kr02c56                   log                factor    1.590650E+03    2.000000E+01    2.000000E+03                     p    1.000000E+00    0.000000E+00          1
              kr02c57                   log                factor    9.097829E+02    2.000000E+01    2.000000E+03                     p    1.000000E+00    0.000000E+00          1
              kr02c58                   log                factor    2.564305E+02    2.000000E+01    2.000000E+03                     p    1.000000E+00    0.000000E+00          1
              kr02c59                   log                factor    8.737305E+01    2.000000E+01    2.000000E+03                     p    1.000000E+00    0.000000E+00          1
              kr02c60                   log                factor    1.286428E+02    2.000000E+01    2.000000E+03                     p    1.000000E+00    0.000000E+00          1
              kr03c01                   log                factor    6.381068E+02    2.000000E+01    2.000000E+03                     p    1.000000E+00    0.000000E+00          1
              kr03c02                   log                factor    1.866953E+02    2.000000E+01    2.000000E+03                     p    1.000000E+00    0.000000E+00          1
              kr03c03                   log                factor    1.869531E+02    2.000000E+01    2.000000E+03                     p    1.000000E+00    0.000000E+00          1
              kr03c04                   log                factor    8.499840E+01    2.000000E+01    2.000000E+03                     p    1.000000E+00    0.000000E+00          1
              kr03c05                   log                factor    4.062500E+01    2.000000E+01    2.000000E+03                     p    1.000000E+00    0.000000E+00          1
              kr03c06                   log                factor    7.600265E+02    2.000000E+01    2.000000E+03                     p    1.000000E+00    0.000000E+00          1
              kr03c07                   log                factor    1.629014E+02    2.000000E+01    2.000000E+03                     p    1.000000E+00    0.000000E+00          1
              kr03c08                   log                factor    3.260430E+02    2.000000E+01    2.000000E+03                     p    1.000000E+00    0.000000E+00          1
              kr03c09                   log                factor    9.978524E+01    2.000000E+01    2.000000E+03                     p    1.000000E+00    0.000000E+00          1
              kr03c10                   log                factor    3.698079E+02    2.000000E+01    2.000000E+03                     p    1.000000E+00    0.000000E+00          1
              kr03c11                   log                factor    4.692306E+02    2.000000E+01    2.000000E+03                     p    1.000000E+00    0.000000E+00          1
              kr03c12                   log                factor    8.629215E+01    2.000000E+01    2.000000E+03                     p    1.000000E+00    0.000000E+00          1
              kr03c13                   log                factor    4.102582E+02    2.000000E+01    2.000000E+03                     p    1.000000E+00    0.000000E+00          1
              kr03c14                   log                factor    4.057037E+02    2.000000E+01    2.000000E+03                     p    1.000000E+00    0.000000E+00          1
              kr03c15                   log                factor    9.939761E+01    2.000000E+01    2.000000E+03                     p    1.000000E+00    0.000000E+00          1
              kr03c16                   log                factor    6.731056E+01    2.000000E+01    2.000000E+03                     p    1.000000E+00    0.000000E+00          1
              kr03c17                   log                factor    2.476291E+02    2.000000E+01    2.000000E+03                     p    1.000000E+00    0.000000E+00          1
              kr03c18                   log                factor    1.492550E+02    2.000000E+01    2.000000E+03                     p    1.000000E+00    0.000000E+00          1
              kr03c19                   log                factor    6.622983E+01    2.000000E+01    2.000000E+03                     p    1.000000E+00    0.000000E+00          1
              kr03c20                   log                factor    5.541247E+01    2.000000E+01    2.000000E+03                     p    1.000000E+00    0.000000E+00          1
              kr03c21                   log                factor    4.676042E+02    2.000000E+01    2.000000E+03                     p    1.000000E+00    0.000000E+00          1
              kr03c22                   log                factor    4.082068E+02    2.000000E+01    2.000000E+03                     p    1.000000E+00    0.000000E+00          1
              kr03c23                   log                factor    8.005556E+01    2.000000E+01    2.000000E+03                     p    1.000000E+00    0.000000E+00          1
              kr03c24                   log                factor    1.007756E+02    2.000000E+01    2.000000E+03                     p    1.000000E+00    0.000000E+00          1
              kr03c25                   log                factor    3.427295E+02    2.000000E+01    2.000000E+03                     p    1.000000E+00    0.000000E+00          1
              kr03c26                   log                factor    2.366672E+02    2.000000E+01    2.000000E+03                     p    1.000000E+00    0.000000E+00          1
              kr03c27                   log                factor    9.211141E+01    2.000000E+01    2.000000E+03                     p    1.000000E+00    0.000000E+00          1
              kr03c28                   log                factor    3.070857E+01    2.000000E+01    2.000000E+03                     p    1.000000E+00    0.000000E+00          1
              kr03c29                   log                factor    4.146376E+01    2.000000E+01    2.000000E+03                     p    1.000000E+00    0.000000E+00          1
              kr03c30                   log                factor    3.850651E+02    2.000000E+01    2.000000E+03                     p    1.000000E+00    0.000000E+00          1
              kr03c31                   log                factor    2.343156E+01    2.000000E+01    2.000000E+03                     p    1.000000E+00    0.000000E+00          1
              kr03c32                   log                factor    1.263147E+02    2.000000E+01    2.000000E+03                     p    1.000000E+00    0.000000E+00          1
              kr03c33                   log                factor    3.726280E+02    2.000000E+01    2.000000E+03                     p    1.000000E+00    0.000000E+00          1
              kr03c34                   log                factor    8.155520E+02    2.000000E+01    2.000000E+03                     p    1.000000E+00    0.000000E+00          1
              kr03c35                   log                factor    2.668900E+02    2.000000E+01    2.000000E+03                     p    1.000000E+00    0.000000E+00          1
              kr03c36                   log                factor    3.763863E+03    2.000000E+01    2.000000E+03                     p    1.000000E+00    0.000000E+00          1
              kr03c37                   log                factor    1.312874E+02    2.000000E+01    2.000000E+03                     p    1.000000E+00    0.000000E+00          1
              kr03c38                   log                factor    1.599203E+02    2.000000E+01    2.000000E+03                     p    1.000000E+00    0.000000E+00          1
              kr03c39                   log                factor    1.425902E+02    2.000000E+01    2.000000E+03                     p    1.000000E+00    0.000000E+00          1