pcf
* control data
             restart          estimation
       601        75         2         0         3         0
         2         5              single               point         1         0         0            noobsref
   1.000000E+01   2.000000E+00   3.000000E-01   3.000000E-02        10       999          lamforgive        noderforgive
   3.000000E+00   3.000000E+00   1.000000E-03         0         0
   1.000000E-01         1   1.100000E+00               noaui          nosenreuse        noboundscale
        -1   5.000000E-03         4         4   1.000000E-03         4   0.000000E+00         1  -1.000000E+00
         1         1         1         0             jcosave          verboserec          jcosaveitn          reisaveitn          parsaveitn          parsaverun
* singular value decomposition
1
75  1.0e-7
1  0  0
* parameter groups
p  relative    1.000000E-02  0  switch    2.000000E+00             parabolic    1.000000E-05    5.000000E-01               smaller
m  relative    1.000000E-02  0  switch    2.000000E+00             parabolic    1.000000E-05    5.000000E-01               smaller
* parameter data
mult1                     log                factor    3.648254E-01    2.500000E-01    2.500000E+00                     m    1.000000E+00    0.000000E+00          1
kr01c01                   log                factor    1.369570E+02    2.000000E+01    2.000000E+03                     p    1.000000E+00    0.000000E+00          1
kr01c02                   log                factor    3.673033E+02    2.000000E+01    2.000000E+03                     p    1.000000E+00    0.000000E+00          1
kr01c03                   log                factor    5.710201E+02    2.000000E+01    2.000000E+03                     p    1.000000E+00    0.000000E+00          1
kr01c04                   log                factor    1.045565E+03    2.000000E+01    2.000000E+03                     p    1.000000E+00    0.000000E+00          1
kr01c05                   log                factor    1.733907E+02    2.000000E+01    2.000000E+03                     p    1.000000E+00    0.000000E+00          1
kr01c06                   log                factor    7.558954E+01    2.000000E+01    2.000000E+03                     p    1.000000E+00    0.000000E+00          1
kr01c07                   log                factor    3.316047E+02    2.000000E+01    2.000000E+03                     p    1.000000E+00    0.000000E+00          1
kr01c08                   log                factor    1.945269E+02    2.000000E+01    2.000000E+03                     p    1.000000E+00    0.000000E+00          1
kr01c09                   log                factor    1.958330E+02    2.000000E+01    2.000000E+03                     p    1.000000E+00    0.000000E+00          1
kr01c10                   log                factor    1.491373E+03    2.000000E+01    2.000000E+03                     p    1.000000E+00    0.000000E+00          1
kr01c11                   log                factor    5.311511E+01    2.000000E+01    2.000000E+03                     p    1.000000E+00    0.000000E+00          1
kr01c12                   log                factor    9.755901E+01    2.000000E+01    2.000000E+03                     p    1.000000E+00    0.000000E+00          1
kr01c13                   log                factor    1.089520E+01    2.000000E+01    2.000000E+03                     p    1.000000E+00    0.000000E+00          1
kr01c14                   log                factor    4.020926E+02    2.000000E+01    2.000000E+03                     p    1.000000E+00    0.000000E+00          1
kr01c15                   log                factor    4.325632E+02    2.000000E+01    2.000000E+03                     p    1.000000E+00    0.000000E+00          1
kr01c16                   log                factor    5.603382E+02    2.000000E+01    2.000000E+03                     p    1.000000E+00    0.000000E+00          1
kr01c17                   log                factor    9.403841E+01    2.000000E+01    2.000000E+03                     p    1.000000E+00    0.000000E+00          1
kr01c18                   log                factor    3.379498E+02    2.000000E+01    2.000000E+03                     p    1.000000E+00    0.000000E+00          1
kr01c19                   log                factor    2.353636E+02    2.000000E+01    2.000000E+03                     p    1.000000E+00    0.000000E+00          1
kr01c20                   log                factor    6.791867E+01    2.000000E+01    2.000000E+03                     p    1.000000E+00    0.000000E+00          1
kr01c21                   log                factor    4.402909E+02    2.000000E+01    2.000000E+03                     p    1.000000E+00    0.000000E+00          1
kr01c22                   log                factor    1.530452E+02    2.000000E+01    2.000000E+03                     p    1.000000E+00    0.000000E+00          1
kr01c23                   log                factor    9.882243E+01    2.000000E+01    2.000000E+03                     p    1.000000E+00    0.000000E+00          1
kr01c24                   log                factor    6.498571E+02    2.000000E+01    2.000000E+03                     p    1.000000E+00    0.000000E+00          1
kr01c25                   log                factor    7.305223E+02    2.000000E+01    2.000000E+03                     p    1.000000E+00    0.000000E+00          1
kr01c26                   log                factor    1.135878E+02    2.000000E+01    2.000000E+03                     p    1.000000E+00    0.000000E+00          1
kr01c27                   log                factor    1.510076E+02    2.000000E+01    2.000000E+03                     p    1.000000E+00    0.000000E+00          1
kr01c28                   log                factor    5.812632E+01    2.000000E+01    2.000000E+03                     p    1.000000E+00    0.000000E+00          1
kr01c29                   log                factor    7.273843E+01    2.000000E+01    2.000000E+03                     p    1.000000E+00    0.000000E+00          1
kr01c30                   log                factor    5.352440E+02    2.000000E+01    2.000000E+03                     p    1.000000E+00    0.000000E+00          1
kr01c31                   log                factor    1.860045E+02    2.000000E+01    2.000000E+03                     p    1.000000E+00    0.000000E+00          1
kr01c32                   log                factor    2.726064E+01    2.000000E+01    2.000000E+03                     p    1.000000E+00    0.000000E+00          1
kr01c33                   log                factor    2.181077E+02    2.000000E+01    2.000000E+03                     p    1.000000E+00    0.000000E+00          1
kr01c34                   log                factor    1.513479E+02    2.000000E+01    2.000000E+03                     p    1.000000E+00    0.000000E+00          1
kr01c35                   log                factor    9.076912E+01    2.000000E+01    2.000000E+03                     p    1.000000E+00    0.000000E+00          1
kr01c36                   log                factor    8.327087E+01    2.000000E+01    2.000000E+03                     p    1.000000E+00    0.000000E+00          1
kr01c37                   log                factor    2.118584E+02    2.000000E+01    2.000000E+03                     p    1.000000E+00    0.000000E+00          1
kr01c38                   log                factor    1.534682E+02    2.000000E+01    2.000000E+03                     p    1.000000E+00    0.000000E+00          1
kr01c39                   log                factor    1.430127E+02    2.000000E+01    2.000000E+03                     p    1.000000E+00    0.000000E+00          1
kr01c40                   log                factor    3.206047E+02    2.000000E+01    2.000000E+03                     p    1.000000E+00    0.000000E+00          1
kr01c41                   log                factor    1.111051E+02    2.000000E+01    2.000000E+03                     p    1.000000E+00    0.000000E+00          1
kr01c42                   log                factor    2.327303E+02    2.000000E+01    2.000000E+03                     p    1.000000E+00    0.000000E+00          1
kr01c43                   log                factor    9.686246E+01    2.000000E+01    2.000000E+03                     p    1.000000E+00    0.000000E+00          1
kr01c44                   log                factor    2.689098E+02    2.000000E+01    2.000000E+03                     p    1.000000E+00    0.000000E+00          1
kr01c45                   log                factor    1.760777E+02    2.000000E+01    2.000000E+03                     p    1.000000E+00    0.000000E+00          1
kr01c46                   log                factor    4.654853E+02    2.000000E+01    2.000000E+03                     p    1.000000E+00    0.000000E+00          1
kr01c47                   log                factor    4.887907E+02    2.000000E+01    2.000000E+03                     p    1.000000E+00    0.000000E+00          1
kr01c48                   log                factor    2.616141E+02    2.000000E+01    2.000000E+03                     p    1.000000E+00    0.000000E+00          1
kr01c49                   log                factor    1.358450E+01    2.000000E+01    2.000000E+03                     p    1.000000E+00    0.000000E+00          1
kr01c50                   log                factor    4.269538E+02    2.000000E+01    2.000000E+03                     p    1.000000E+00    0.000000E+00          1
kr01c51                   log                factor    2.371001E+02    2.000000E+01    2.000000E+03                     p    1.000000E+00    0.000000E+00          1
kr01c52                   log                factor    5.157665E+02    2.000000E+01    2.000000E+03                     p    1.000000E+00    0.000000E+00          1
kr01c53                   log                factor    1.513802E+02    2.000000E+01    2.000000E+03                     p    1.000000E+00    0.000000E+00          1
kr01c54                   log                factor    7.622706E+01    2.000000E+01    2.000000E+03                     p    1.000000E+00    0.000000E+00          1
kr01c55                   log                factor    6.453934E+01    2.000000E+01    2.000000E+03                     p    1.000000E+00    0.000000E+00          1
kr01c56                   log                factor    1.221328E+03    2.000000E+01    2.000000E+03                     p    1.000000E+00    0.000000E+00          1
kr01c57                   log                factor    7.121158E+02    2.000000E+01    2.000000E+03                     p    1.000000E+00    0.000000E+00          1
kr01c58                   log                factor    1.861441E+03    2.000000E+01    2.000000E+03                     p    1.000000E+00    0.000000E+00          1
kr01c59                   log                factor    9.349922E+01    2.000000E+01    2.000000E+03                     p    1.000000E+00    0.000000E+00          1
kr01c60                   log                factor    6.020707E+01    2.000000E+01    2.000000E+03                     p    1.000000E+00    0.000000E+00          1
kr02c01                   log                factor    5.059092E+02    2.000000E+01    2.000000E+03                     p    1.000000E+00    0.000000E+00          1
kr02c02                   log                factor    9.464249E+02    2.000000E+01    2.000000E+03                     p    1.000000E+00    0.000000E+00          1
kr02c03                   log                factor    4.012863E+01    2.000000E+01    2.000000E+03                     p    1.000000E+00    0.000000E+00          1
kr02c04                   log                factor    2.623597E+03    2.000000E+01    2.000000E+03                     p    1.000000E+00    0.000000E+00          1
kr02c05                   log                factor    7.592444E+02    2.000000E+01    2.000000E+03                     p    1.000000E+00    0.000000E+00          1
kr02c06                   log                factor    3.436807E+02    2.000000E+01    2.000000E+03                     p    1.000000E+00    0.000000E+00          1
kr02c07                   log                factor    1.465230E+02    2.000000E+01    2.000000E+03                     p    1.000000E+00    0.000000E+00          1
kr02c08                   log                factor    3.321878E+02    2.000000E+01    2.000000E+03                     p    1.000000E+00    0.000000E+00          1
kr02c09                   log                factor    1.917032E+02    2.000000E+01    2.000000E+03                     p    1.000000E+00    0.000000E+00          1
kr02c10                   log                factor    1.919743E+02    2.000000E+01    2.000000E+03                     p    1.000000E+00    0.000000E+00          1
kr02c11                   log                factor    1.180689E+02    2.000000E+01    2.000000E+03                     p    1.000000E+00    0.000000E+00          1
kr02c12                   log                factor    2.488602E+02    2.000000E+01    2.000000E+03                     p    1.000000E+00    0.000000E+00          1
kr02c13                   log                factor    3.791556E+01    2.000000E+01    2.000000E+03                     p    1.000000E+00    0.000000E+00          1
kr02c14                   log                factor    1.317474E+03    2.000000E+01    2.000000E+03                     p    1.000000E+00    0.000000E+00          1
kr02c15                   log                factor    8.048885E+01    2.000000E+01    2.000000E+03                     p    1.000000E+00    0.000000E+00          1
kr02c16                   log                factor    8.321516E+02    2.000000E+01    2.000000E+03                     p    1.000000E+00    0.000000E+00          1
kr02c17                   log                factor    8.477333E+01    2.000000E+01    2.000000E+03                     p    1.000000E+00    0.000000E+00          1
kr02c18                   log                factor    2.554456E+02    2.000000E+01    2.000000E+03                     p    1.000000E+00    0.000000E+00          1
kr02c19                   log                factor    1.717457E+03    2.000000E+01    2.000000E+03                     p    1.000000E+00    0.000000E+00          1
kr02c20                   log                factor    1.135766E+02    2.000000E+01    2.000000E+03                     p    1.000000E+00    0.000000E+00          1
kr02c21                   log                factor    1.198352E+02    2.000000E+01    2.000000E+03                     p    1.000000E+00    0.000000E+00          1
kr02c22                   log                factor    7.363016E+02    2.000000E+01    2.000000E+03                     p    1.000000E+00    0.000000E+00          1
kr02c23                   log                factor    6.571661E+01    2.000000E+01    2.000000E+03                     p    1.000000E+00    0.000000E+00          1
kr02c24                   log                factor    7.572542E+01    2.000000E+01    2.000000E+03                     p    1.000000E+00    0.000000E+00          1
kr02c25                   log                factor    9.893130E+01    2.000000E+01    2.000000E+03                     p    1.000000E+00    0.000000E+00          1
kr02c26                   log                factor    5.725066E+02    2.000000E+01    2.000000E+03                     p    1.000000E+00    0.000000E+00          1
kr02c27                   log                factor    1.985476E+02    2.000000E+01    2.000000E+03                     p    1.000000E+00    0.000000E+00          1
kr02c28                   log                factor    2.950775E+02    2.000000E+01    2.000000E+03                     p    1.000000E+00    0.000000E+00          1
kr02c29                   log                factor    2.451080E+01    2.000000E+01    2.000000E+03                     p    1.000000E+00    0.000000E+00          1
kr02c30                   log                factor    8.537454E+02    2.000000E+01    2.000000E+03                     p    1.000000E+00    0.000000E+00          1
kr02c31                   log                factor    2.076337E+02    2.000000E+01    2.000000E+03                     p    1.000000E+00    0.000000E+00          1
kr02c32                   log                factor    8.657372E+02    2.000000E+01    2.000000E+03                     p    1.000000E+00    0.000000E+00          1
kr02c33                   log                factor    2.031888E+02    2.000000E+01    2.000000E+03                     p    1.000000E+00    0.000000E+00          1
kr02c34                   log                factor    1.064673E+02    2.000000E+01    2.000000E+03                     p    1.000000E+00    0.000000E+00          1
kr02c35                   log                factor    1.243318E+02    2.000000E+01    2.000000E+03                     p    1.000000E+00    0.000000E+00          1
kr02c36                   log                factor    6.308352E+01    2.000000E+01    2.000000E+03                     p    1.000000E+00    0.000000E+00          1
kr02c37                   log                factor    4.870664E+01    2.000000E+01    2.000000E+03                     p    1.000000E+00    0.000000E+00          1
kr02c38                   log                factor    3.428932E+02    2.000000E+01    2.000000E+03                     p    1.000000E+00    0.000000E+00          1
kr02c39                   log                factor    1.172973E+02    2.000000E+01    2.000000E+03                     p    1.000000E+00    0.000000E+00          1
kr02c40                   log                factor    1.181813E+02    2.000000E+01    2.000000E+03                     p    1.000000E+00    0.000000E+00          1
kr02c41                   log                factor    3.579047E+02    2.000000E+01    2.000000E+03                     p    1.000000E+00    0.000000E+00          1
kr02c42                   log                factor    1.615458E+02    2.000000E+01    2.000000E+03                     p    1.000000E+00    0.000000E+00          1
kr02c43                   log                factor    8.677425E+01    2.000000E+01    2.000000E+03                     p    1.000000E+00    0.000000E+00          1
kr02c44                   log                factor    9.069386E+02    2.000000E+01    2.000000E+03                     p    1.000000E+00    0.000000E+00          1
kr02c45                   log                factor    1.334152E+02    2.000000E+01    2.000000E+03                     p    1.000000E+00    0.000000E+00          1
kr02c46                   log                factor    3.095810E+02    2.000000E+01    2.000000E+03                     p    1.000000E+00    0.000000E+00          1
kr02c47                   log                factor    4.212928E+02    2.000000E+01    2.000000E+03                     p    1.000000E+00    0.000000E+00          1
kr02c48                   log                factor    5.566250E+01    2.000000E+01    2.000000E+03                     p    1.000000E+00    0.000000E+00          1
kr02c49                   log                factor    1.175249E+02    2.000000E+01    2.000000E+03                     p    1.000000E+00    0.000000E+00          1
kr02c50                   log                factor    5.053491E+01    2.000000E+01    2.000000E+03                     p    1.000000E+00    0.000000E+00          1
kr02c51                   log                factor    1.097753E+02    2.000000E+01    2.000000E+03                     p    1.000000E+00    0.000000E+00          1
kr02c52                   log                factor    2.583598E+02    2.000000E+01    2.000000E+03                     p    1.000000E+00    0.000000E+00          1
kr02c53                   log                factor    3.690396E+02    2.000000E+01    2.000000E+03                     p    1.000000E+00    0.000000E+00          1
kr02c54                   log                factor    2.844902E+02    2.000000E+01    2.000000E+03                     p    1.000000E+00    0.000000E+00          1
kr02c55                   log                factor    6.817283E+02    2.000000E+01    2.000000E+03                     p    1.000000E+00    0.000000E+00          1
kr02c56                   log                factor    9.348822E+01    2.000000E+01    2.000000E+03                     p    1.000000E+00    0.000000E+00          1
kr02c57                   log                factor    4.176105E+02    2.000000E+01    2.000000E+03                     p    1.000000E+00    0.000000E+00          1
kr02c58                   log                factor    1.746786E+02    2.000000E+01    2.000000E+03                     p    1.000000E+00    0.000000E+00          1
kr02c59                   log                factor    7.128743E+02    2.000000E+01    2.000000E+03                     p    1.000000E+00    0.000000E+00          1
kr02c60                   log                factor    2.788403E+02    2.000000E+01    2.000000E+03                     p    1.000000E+00    0.000000E+00          1
kr03c01                   log                factor    1.596105E+02    2.000000E+01    2.000000E+03                     p    1.000000E+00    0.000000E+00          1
kr03c02                   log                factor    8.146912E+01    2.000000E+01    2.000000E+03                     p    1.000000E+00    0.000000E+00          1
kr03c03                   log                factor    1.275274E+02    2.000000E+01    2.000000E+03                     p    1.000000E+00    0.000000E+00          1
kr03c04                   log                factor    1.019016E+03    2.000000E+01    2.000000E+03                     p    1.000000E+00    0.000000E+00          1
kr03c05                   log                factor    2.049651E+02    2.000000E+01    2.000000E+03                     p    1.000000E+00    0.000000E+00          1
kr03c06                   log                factor    4.956683E+01    2.000000E+01    2.000000E+03                     p    1.000000E+00    0.000000E+00          1
kr03c07                   log                factor    6.284868E+02    2.000000E+01    2.000000E+03                     p    1.000000E+00    0.000000E+00          1
kr03c08                   log                factor    2.895865E+02    2.000000E+01    2.000000E+03                     p    1.000000E+00    0.000000E+00          1
kr03c09                   log                factor    2.760645E+02    2.000000E+01    2.000000E+03                     p    1.000000E+00    0.000000E+00          1
kr03c10                   log                factor    2.241093E+02    2.000000E+01    2.000000E+03                     p    1.000000E+00    0.000000E+00          1
kr03c11                   log                factor    5.876335E+02    2.000000E+01    2.000000E+03                     p    1.000000E+00    0.000000E+00          1
kr03c12                   log                factor    6.420796E+02    2.000000E+01    2.000000E+03                     p    1.000000E+00    0.000000E+00          1
kr03c13                   log                factor    7.977240E+01    2.000000E+01    2.000000E+03                     p    1.000000E+00    0.000000E+00          1
kr03c14                   log                factor    1.723915E+02    2.000000E+01    2.000000E+03                     p    1.000000E+00    0.000000E+00          1
kr03c15                   log                factor    1.181252E+02    2.000000E+01    2.000000E+03                     p    1.000000E+00    0.000000E+00          1
kr03c16                   log                factor    2.254267E+02    2.000000E+01    2.000000E+03                     p    1.000000E+00    0.000000E+00          1
kr03c17                   log                factor    2.224036E+01    2.000000E+01    2.000000E+03                     p    1.000000E+00    0.000000E+00          1
kr03c18                   log                factor    1.528189E+02    2.000000E+01    2.000000E+03                     p    1.000000E+00    0.000000E+00          1
kr03c19                   log                factor    8.739658E+01    2.000000E+01    2.000000E+03                     p    1.000000E+00    0.000000E+00          1
kr03c20                   log                factor    1.172930E+03    2.000000E+01    2.000000E+03                     p    1.000000E+00    0.000000E+00          1
kr03c21                   log                factor    3.018911E+02    2.000000E+01    2.000000E+03                     p    1.000000E+00    0.000000E+00          1
kr03c22                   log                factor    1.841568E+02    2.000000E+01    2.000000E+03                     p    1.000000E+00    0.000000E+00          1
kr03c23                   log                factor    6.559620E+01    2.000000E+01    2.000000E+03                     p    1.000000E+00    0.000000E+00          1
kr03c24                   log                factor    8.964506E+01    2.000000E+01    2.000000E+03                     p    1.000000E+00    0.000000E+00          1
kr03c25                   log                factor    9.643752E+01    2.000000E+01    2.000000E+03                     p    1.000000E+00    0.000000E+00          1
kr03c26                   log                factor    6.232240E+02    2.000000E+01    2.000000E+03                     p    1.000000E+00    0.000000E+00          1
kr03c27                   log                factor    6.988479E+02    2.000000E+01    2.000000E+03                     p    1.000000E+00    0.000000E+00          1
kr03c28                   log                factor    7.115808E+01    2.000000E+01    2.000000E+03                     p    1.000000E+00    0.000000E+00          1
kr03c29                   log                factor    2.278351E+02    2.000000E+01    2.000000E+03                     p    1.000000E+00    0.000000E+00          1
kr03c30                   log                factor    1.918956E+02    2.000000E+01    2.000000E+03                     p    1.000000E+00    0.000000E+00          1
kr03c31                   log                factor    2.169221E+02    2.000000E+01    2.000000E+03                     p    1.000000E+00    0.000000E+00          1
kr03c32                   log                factor    3.539742E+02    2.000000E+01    2.000000E+03                     p    1.000000E+00    0.000000E+00          1
kr03c33                   log                factor    3.062695E+02    2.000000E+01    2.000000E+03                     p    1.000000E+00    0.000000E+00          1
kr03c34                   log                factor    6.547125E+02    2.000000E+01    2.000000E+03                     p    1.000000E+00    0.000000E+00          1
kr03c35                   log                factor    6.508422E+01    2.000000E+01    2.000000E+03                     p    1.000000E+00    0.000000E+00          1
kr03c36                   log                factor    1.888649E+03    2.000000E+01    2.000000E+03                     p    1.000000E+00    0.000000E+00          1
kr03c37                   log                factor    2.278498E+02    2.000000E+01    2.000000E+03                     p    1.000000E+00    0.000000E+00          1
kr03c38                   log                factor    5.071038E+02    2.000000E+01    2.000000E+03                     p    1.000000E+00    0.000000E+00          1
kr03c39                   log                factor    2.783082E+02    2.000000E+01    2.000000E+03                     p    1.000000E+00    0.000000E+00          1
kr03c40                   log                factor    6.539108E+01    2.000000E+01    2.000000E+03                     p    1.000000E+00    0.000000E+00          1
kr03c41                   log                factor    7.046005E+02    2.000000E+01    2.000000E+03                     p    1.000000E+00    0.000000E+00          1
kr03c42                   log                factor    5.805120E+02    2.000000E+01    2.000000E+03                     p    1.000000E+00    0.000000E+00          1
kr03c43                   log                factor    4.140442E+02    2.000000E+01    2.000000E+03                     p    1.000000E+00    0.000000E+00          1
kr03c44                   log                factor    3.934580E+02    2.000000E+01    2.000000E+03                     p    1.000000E+00    0.000000E+00          1
kr03c45                   log                factor    2.357365E+02    2.000000E+01    2.000000E+03                     p    1.000000E+00    0.000000E+00          1
kr03c46                   log                factor    1.804147E+02    2.000000E+01    2.000000E+03                     p    1.000000E+00    0.000000E+00          1
kr03c47                   log                factor    5.074968E+01    2.000000E+01    2.000000E+03                     p    1.000000E+00    0.000000E+00          1
kr03c48                   log                factor    5.994214E+01    2.000000E+01    2.000000E+03                     p    1.000000E+00    0.000000E+00          1
kr03c49                   log                factor    3.499576E+02    2.000000E+01    2.000000E+03                     p    1.000000E+00    0.000000E+00          1
kr03c50                   log                factor    3.177348E+01    2.000000E+01    2.000000E+03                     p    1.000000E+00    0.000000E+00          1
kr03c51                   log                factor    2.204265E+02    2.000000E+01    2.000000E+03                     p    1.000000E+00    0.000000E+00          1
kr03c52                   log                factor    3.717923E+02    2.000000E+01    2.000000E+03                     p    1.000000E+00    0.000000E+00          1
kr03c53                   log                factor    4.718703E+02    2.000000E+01    2.000000E+03                     p    1.000000E+00    0.000000E+00          1