pcf
* control data
             restart          estimation
       601        75         2         0         3         0
         2         5              single               point         1         0         0            noobsref
   1.000000E+01   2.000000E+00   3.000000E-01   3.000000E-02        10       999          lamforgive        noderforgive
   3.000000E+00   3.000000E+00   1.000000E-03         0         0
   1.000000E-01         1   1.100000E+00               noaui          nosenreuse        noboundscale
        -1   5.000000E-03         4         4   1.000000E-03         4   0.000000E+00         1  -1.000000E+00
         1         1         1         0             jcosave          verboserec          jcosaveitn          reisaveitn          parsaveitn        noparsaverun
* singular value decomposition
1
75  1.0e-7
1  0  0
* parameter groups
                    p              relative    1.000000E-02  0                switch    2.000000E+00             parabolic    1.000000E-05    5.000000E-01               smaller
                    m              relative    1.000000E-02  0                switch    2.000000E+00             parabolic    1.000000E-05    5.000000E-01               smaller
* parameter data
                mult1                   log                factor    1.034351E+00    2.500000E-01    2.500000E+00                     m    1.000000E+00    0.000000E+00          1
              kr01c01                   log                factor    1.292189E+02    2.000000E+01    2.000000E+03                     p    1.000000E+00    0.000000E+00          1
              kr01c02                   log                factor    2.917989E+02    2.000000E+01    2.000000E+03                     p    1.000000E+00    0.000000E+00          1
              kr01c03                   log                factor    4.042490E+03    2.000000E+01    2.000000E+03                     p    1.000000E+00    0.000000E+00          1
              kr01c04                   log                factor    4.538624E+01    2.000000E+01    2.000000E+03                     p    1.000000E+00    0.000000E+00          1
              kr01c05                   log                factor    3.410159E+02    2.000000E+01    2.000000E+03                     p    1.000000E+00    0.000000E+00          1
              kr01c06                   log                factor    7.358640E+02    2.000000E+01    2.000000E+03                     p    1.000000E+00    0.000000E+00          1
              kr01c07                   log                factor    5.892421E+01    2.000000E+01    2.000000E+03                     p    1.000000E+00    0.000000E+00          1
              kr01c08                   log                factor    8.319076E+01    2.000000E+01    2.000000E+03                     p    1.000000E+00    0.000000E+00          1
              kr01c09                   log                factor    2.502480E+02    2.000000E+01    2.000000E+03                     p    1.000000E+00    0.000000E+00          1
              kr01c10                   log                factor    5.790346E+02    2.000000E+01    2.000000E+03                     p    1.000000E+00    0.000000E+00          1
              kr01c11                   log                factor    3.395695E+02    2.000000E+01    2.000000E+03                     p    1.000000E+00    0.000000E+00          1
              kr01c12                   log                factor    7.459905E+02    2.000000E+01    2.000000E+03                     p    1.000000E+00    0.000000E+00          1
              kr01c13                   log                factor    5.317173E+02    2.000000E+01    2.000000E+03                     p    1.000000E+00    0.000000E+00          1
              kr01c14                   log                factor    1.686517E+03    2.000000E+01    2.000000E+03                     p    1.000000E+00    0.000000E+00          1
              kr01c15                   log                factor    7.454501E+01    2.000000E+01    2.000000E+03                     p    1.000000E+00    0.000000E+00          1
              kr01c16                   log                factor    1.270132E+02    2.000000E+01    2.000000E+03                     p    1.000000E+00    0.000000E+00          1
              kr01c17                   log                factor    3.377099E+02    2.000000E+01    2.000000E+03                     p    1.000000E+00    0.000000E+00          1
              kr01c18                   log                factor    9.945127E+02    2.000000E+01    2.000000E+03                     p    1.000000E+00    0.000000E+00          1
              kr01c19                   log                factor    1.593698E+03    2.000000E+01    2.000000E+03                     p    1.000000E+00    0.000000E+00          1
              kr01c20                   log                factor    2.360637E+02    2.000000E+01    2.000000E+03                     p    1.000000E+00    0.000000E+00          1
              kr01c21                   log                factor    1.696422E+02    2.000000E+01    2.000000E+03                     p    1.000000E+00    0.000000E+00          1
              kr01c22                   log                factor    3.054126E+02    2.000000E+01    2.000000E+03                     p    1.000000E+00    0.000000E+00          1
              kr01c23                   log                factor    1.200721E+03    2.000000E+01    2.000000E+03                     p    1.000000E+00    0.000000E+00          1
              kr01c24                   log                factor    8.652418E+02    2.000000E+01    2.000000E+03                     p    1.000000E+00    0.000000E+00          1
              kr01c25                   log                factor    1.511702E+03    2.000000E+01    2.000000E+03                     p    1.000000E+00    0.000000E+00          1
              kr01c26                   log                factor    2.611757E+02    2.000000E+01    2.000000E+03                     p    1.000000E+00    0.000000E+00          1
              kr01c27                   log                factor    1.685192E+01    2.000000E+01    2.000000E+03                     p    1.000000E+00    0.000000E+00          1
              kr01c28                   log                factor    1.237316E+03    2.000000E+01    2.000000E+03                     p    1.000000E+00    0.000000E+00          1
              kr01c29                   log                factor    2.445361E+02    2.000000E+01    2.000000E+03                     p    1.000000E+00    0.000000E+00          1
              kr01c30                   log                factor    1.415945E+03    2.000000E+01    2.000000E+03                     p    1.000000E+00    0.000000E+00          1
              kr01c31                   log                factor    9.929071E+02    2.000000E+01    2.000000E+03                     p    1.000000E+00    0.000000E+00          1
              kr01c32                   log                factor    7.024683E+02    2.000000E+01    2.000000E+03                     p    1.000000E+00    0.000000E+00          1
              kr01c33                   log                factor    1.540792E+02    2.000000E+01    2.000000E+03                     p    1.000000E+00    0.000000E+00          1
              kr01c34                   log                factor    3.341583E+02    2.000000E+01    2.000000E+03                     p    1.000000E+00    0.000000E+00          1
              kr01c35                   log                factor    4.496779E+02    2.000000E+01    2.000000E+03                     p    1.000000E+00    0.000000E+00          1
              kr01c36                   log                factor    8.751841E+02    2.000000E+01    2.000000E+03                     p    1.000000E+00    0.000000E+00          1
              kr01c37                   log                factor    1.041499E+02    2.000000E+01    2.000000E+03                     p    1.000000E+00    0.000000E+00          1
              kr01c38                   log                factor    2.772100E+02    2.000000E+01    2.000000E+03                     p    1.000000E+00    0.000000E+00          1
              kr01c39                   log                factor    9.220723E+01    2.000000E+01    2.000000E+03                     p    1.000000E+00    0.000000E+00          1
              kr01c40                   log                factor    1.543020E+02    2.000000E+01    2.000000E+03                     p    1.000000E+00    0.000000E+00          1
              kr01c41                   log                factor    5.751596E+02    2.000000E+01    2.000000E+03                     p    1.000000E+00    0.000000E+00          1
              kr01c42                   log                factor    1.129292E+02    2.000000E+01    2.000000E+03                     p    1.000000E+00    0.000000E+00          1
              kr01c43                   log                factor    5.974367E+01    2.000000E+01    2.000000E+03                     p    1.000000E+00    0.000000E+00          1
              kr01c44                   log                factor    2.854554E+02    2.000000E+01    2.000000E+03                     p    1.000000E+00    0.000000E+00          1
              kr01c45                   log                factor    8.030137E+02    2.000000E+01    2.000000E+03                     p    1.000000E+00    0.000000E+00          1
              kr01c46                   log                factor    1.273938E+03    2.000000E+01    2.000000E+03                     p    1.000000E+00    0.000000E+00          1
              kr01c47                   log                factor    1.710344E+01    2.000000E+01    2.000000E+03                     p    1.000000E+00    0.000000E+00          1
              kr01c48                   log                factor    5.980751E+01    2.000000E+01    2.000000E+03                     p    1.000000E+00    0.000000E+00          1
              kr01c49                   log                factor    1.424071E+03    2.000000E+01    2.000000E+03                     p    1.000000E+00    0.000000E+00          1
              kr01c50                   log                factor    1.027806E+03    2.000000E+01    2.000000E+03                     p    1.000000E+00    0.000000E+00          1
              kr01c51                   log                factor    1.106837E+02    2.000000E+01    2.000000E+03                     p    1.000000E+00    0.000000E+00          1
              kr01c52                   log                factor    1.873591E+02    2.000000E+01    2.000000E+03                     p    1.000000E+00    0.000000E+00          1
              kr01c53                   log                factor    6.251880E+01    2.000000E+01    2.000000E+03                     p    1.000000E+00    0.000000E+00          1
              kr01c54                   log                factor    1.092983E+03    2.000000E+01    2.000000E+03                     p    1.000000E+00    0.000000E+00          1
              kr01c55                   log                factor    7.857915E+02    2.000000E+01    2.000000E+03                     p    1.000000E+00    0.000000E+00          1
              kr01c56                   log                factor    4.533006E+01    2.000000E+01    2.000000E+03                     p    1.000000E+00    0.000000E+00          1
              kr01c57                   log                factor    7.726804E+01    2.000000E+01    2.000000E+03                     p    1.000000E+00    0.000000E+00          1
              kr01c58                   log                factor    2.098064E+03    2.000000E+01    2.000000E+03                     p    1.000000E+00    0.000000E+00          1
              kr01c59                   log                factor    9.612467E+01    2.000000E+01    2.000000E+03                     p    1.000000E+00    0.000000E+00          1
              kr01c60                   log                factor    6.637737E+01    2.000000E+01    2.000000E+03                     p    1.000000E+00    0.000000E+00          1
              kr02c01                   log                factor    5.964163E+01    2.000000E+01    2.000000E+03                     p    1.000000E+00    0.000000E+00          1
              kr02c02                   log                factor    2.608432E+02    2.000000E+01    2.000000E+03                     p    1.000000E+00    0.000000E+00          1
              kr02c03                   log                factor    1.490068E+02    2.000000E+01    2.000000E+03                     p    1.000000E+00    0.000000E+00          1
              kr02c04                   log                factor    9.491331E+01    2.000000E+01    2.000000E+03                     p    1.000000E+00    0.000000E+00          1
              kr02c05                   log                factor    1.042432E+03    2.000000E+01    2.000000E+03                     p    1.000000E+00    0.000000E+00          1
              kr02c06                   log                factor    3.180224E+03    2.000000E+01    2.000000E+03                     p    1.000000E+00    0.000000E+00          1
              kr02c07                   log                factor    1.914678E+02    2.000000E+01    2.000000E+03                     p    1.000000E+00    0.000000E+00          1
              kr02c08                   log                factor    3.317656E+02    2.000000E+01    2.000000E+03                     p    1.000000E+00    0.000000E+00          1
              kr02c09                   log                factor    1.040200E+02    2.000000E+01    2.000000E+03                     p    1.000000E+00    0.000000E+00          1
              kr02c10                   log                factor    2.302559E+02    2.000000E+01    2.000000E+03                     p    1.000000E+00    0.000000E+00          1
              kr02c11                   log                factor    2.417198E+02    2.000000E+01    2.000000E+03                     p    1.000000E+00    0.000000E+00          1
              kr02c12                   log                factor    1.283037E+02    2.000000E+01    2.000000E+03                     p    1.000000E+00    0.000000E+00          1
              kr02c13                   log                factor    5.155120E+02    2.000000E+01    2.000000E+03                     p    1.000000E+00    0.000000E+00          1
              kr02c14                   log                factor    2.434881E+03    2.000000E+01    2.000000E+03                     p    1.000000E+00    0.000000E+00          1
              kr02c15                   log                factor    1.558629E+02    2.000000E+01    2.000000E+03                     p    1.000000E+00    0.000000E+00          1
              kr02c16                   log                factor    9.857252E+02    2.000000E+01    2.000000E+03                     p    1.000000E+00    0.000000E+00          1
              kr02c17                   log                factor    4.114445E+02    2.000000E+01    2.000000E+03                     p    1.000000E+00    0.000000E+00          1
              kr02c18                   log                factor    7.463983E+02    2.000000E+01    2.000000E+03                     p    1.000000E+00    0.000000E+00          1
              kr02c19                   log                factor    5.362480E+02    2.000000E+01    2.000000E+03                     p    1.000000E+00    0.000000E+00          1
              kr02c20                   log                factor    2.526305E+03    2.000000E+01    2.000000E+03                     p    1.000000E+00    0.000000E+00          1
              kr02c21                   log                factor    5.265086E+02    2.000000E+01    2.000000E+03                     p    1.000000E+00    0.000000E+00          1
              kr02c22                   log                factor    8.713370E+02    2.000000E+01    2.000000E+03                     p    1.000000E+00    0.000000E+00          1
              kr02c23                   log                factor    1.355513E+02    2.000000E+01    2.000000E+03                     p    1.000000E+00    0.000000E+00          1
              kr02c24                   log                factor    4.376682E+02    2.000000E+01    2.000000E+03                     p    1.000000E+00    0.000000E+00          1
              kr02c25                   log                factor    5.422278E+02    2.000000E+01    2.000000E+03                     p    1.000000E+00    0.000000E+00          1
              kr02c26                   log                factor    9.954120E+01    2.000000E+01    2.000000E+03                     p    1.000000E+00    0.000000E+00          1
              kr02c27                   log                factor    3.358323E+01    2.000000E+01    2.000000E+03                     p    1.000000E+00    0.000000E+00          1
              kr02c28                   log                factor    2.945393E+02    2.000000E+01    2.000000E+03                     p    1.000000E+00    0.000000E+00          1
              kr02c29                   log                factor    3.131992E+02    2.000000E+01    2.000000E+03                     p    1.000000E+00    0.000000E+00          1
              kr02c30                   log                factor    7.730008E+01    2.000000E+01    2.000000E+03                     p    1.000000E+00    0.000000E+00          1
              kr02c31                   log                factor    1.047309E+02    2.000000E+01    2.000000E+03                     p    1.000000E+00    0.000000E+00          1
              kr02c32                   log                factor    2.878483E+02    2.000000E+01    2.000000E+03                     p    1.000000E+00    0.000000E+00          1
              kr02c33                   log                factor    9.968835E+01    2.000000E+01    2.000000E+03                     p    1.000000E+00    0.000000E+00          1
              kr02c34                   log                factor    3.170908E+03    2.000000E+01    2.000000E+03                     p    1.000000E+00    0.000000E+00          1
              kr02c35                   log                factor    5.496489E+01    2.000000E+01    2.000000E+03                     p    1.000000E+00    0.000000E+00          1
              kr02c36                   log                factor    6.231122E+01    2.000000E+01    2.000000E+03                     p    1.000000E+00    0.000000E+00          1
              kr02c37                   log                factor    2.903714E+01    2.000000E+01    2.000000E+03                     p    1.000000E+00    0.000000E+00          1
              kr02c38                   log                factor    9.185714E+01    2.000000E+01    2.000000E+03                     p    1.000000E+00    0.000000E+00          1
              kr02c39                   log                factor    1.402347E+03    2.000000E+01    2.000000E+03                     p    1.000000E+00    0.000000E+00          1
              kr02c40                   log                factor    1.341811E+02    2.000000E+01    2.000000E+03                     p    1.000000E+00    0.000000E+00          1
              kr02c41                   log                factor    2.169395E+02    2.000000E+01    2.000000E+03                     p    1.000000E+00    0.000000E+00          1
              kr02c42                   log                factor    7.316703E+02    2.000000E+01    2.000000E+03                     p    1.000000E+00    0.000000E+00          1
              kr02c43                   log                factor    3.376279E+02    2.000000E+01    2.000000E+03                     p    1.000000E+00    0.000000E+00          1
              kr02c44                   log                factor    4.400262E+01    2.000000E+01    2.000000E+03                     p    1.000000E+00    0.000000E+00          1
              kr02c45                   log                factor    9.609466E+02    2.000000E+01    2.000000E+03                     p    1.000000E+00    0.000000E+00          1
              kr02c46                   log                factor    3.885418E+01    2.000000E+01    2.000000E+03                     p    1.000000E+00    0.000000E+00          1
              kr02c47                   log                factor    4.723660E+02    2.000000E+01    2.000000E+03                     p    1.000000E+00    0.000000E+00          1
              kr02c48                   log                factor    1.245255E+03    2.000000E+01    2.000000E+03                     p    1.000000E+00    0.000000E+00          1
              kr02c49                   log                factor    7.290328E+01    2.000000E+01    2.000000E+03                     p    1.000000E+00    0.000000E+00          1
              kr02c50                   log                factor    4.262202E+02    2.000000E+01    2.000000E+03                     p    1.000000E+00    0.000000E+00          1
              kr02c51                   log                factor    1.246568E+03    2.000000E+01    2.000000E+03                     p    1.000000E+00    0.000000E+00          1
              kr02c52                   log                factor    3.212335E+02    2.000000E+01    2.000000E+03                     p    1.000000E+00    0.000000E+00          1
              kr02c53                   log                factor    3.046882E+03    2.000000E+01    2.000000E+03                     p    1.000000E+00    0.000000E+00          1
              kr02c54                   log                factor    1.694856E+01    2.000000E+01    2.000000E+03                     p    1.000000E+00    0.000000E+00          1
              kr02c55                   log                factor    4.973026E+02    2.000000E+01    2.000000E+03                     p    1.000000E+00    0.000000E+00          1
              kr02c56                   log                factor    1.729565E+02    2.000000E+01    2.000000E+03                     p    1.000000E+00    0.000000E+00          1
              kr02c57                   log                factor    8.254044E+02    2.000000E+01    2.000000E+03                     p    1.000000E+00    0.000000E+00          1
              kr02c58                   log                factor    4.859369E+02    2.000000E+01    2.000000E+03                     p    1.000000E+00    0.000000E+00          1
              kr02c59                   log                factor    3.853218E+02    2.000000E+01    2.000000E+03                     p    1.000000E+00    0.000000E+00          1
              kr02c60                   log                factor    1.642905E+02    2.000000E+01    2.000000E+03                     p    1.000000E+00    0.000000E+00          1
              kr03c01                   log                factor    3.555986E+02    2.000000E+01    2.000000E+03                     p    1.000000E+00    0.000000E+00          1
              kr03c02                   log                factor    1.074943E+03    2.000000E+01    2.000000E+03                     p    1.000000E+00    0.000000E+00          1
              kr03c03                   log                factor    2.367890E+02    2.000000E+01    2.000000E+03                     p    1.000000E+00    0.000000E+00          1
              kr03c04                   log                factor    5.986205E+01    2.000000E+01    2.000000E+03                     p    1.000000E+00    0.000000E+00          1
              kr03c05                   log                factor    8.309217E+01    2.000000E+01    2.000000E+03                     p    1.000000E+00    0.000000E+00          1
              kr03c06                   log                factor    2.935854E+02    2.000000E+01    2.000000E+03                     p    1.000000E+00    0.000000E+00          1
              kr03c07                   log                factor    8.413270E+01    2.000000E+01    2.000000E+03                     p    1.000000E+00    0.000000E+00          1
              kr03c08                   log                factor    5.848012E+02    2.000000E+01    2.000000E+03                     p    1.000000E+00    0.000000E+00          1
              kr03c09                   log                factor    1.037086E+03    2.000000E+01    2.000000E+03                     p    1.000000E+00    0.000000E+00          1
              kr03c10                   log                factor    6.767119E+02    2.000000E+01    2.000000E+03                     p    1.000000E+00    0.000000E+00          1
              kr03c11                   log                factor    3.040612E+02    2.000000E+01    2.000000E+03                     p    1.000000E+00    0.000000E+00          1
              kr03c12                   log                factor    5.749654E+01    2.000000E+01    2.000000E+03                     p    1.000000E+00    0.000000E+00          1
              kr03c13                   log                factor    6.172808E+02    2.000000E+01    2.000000E+03                     p    1.000000E+00    0.000000E+00          1
              kr03c14                   log                factor    2.796409E+02    2.000000E+01    2.000000E+03                     p    1.000000E+00    0.000000E+00          1
              kr03c15                   log                factor    2.514222E+02    2.000000E+01    2.000000E+03                     p    1.000000E+00    0.000000E+00          1
              kr03c16                   log                factor    4.214954E+02    2.000000E+01    2.000000E+03                     p    1.000000E+00    0.000000E+00          1
              kr03c17                   log                factor    8.121377E+01    2.000000E+01    2.000000E+03                     p    1.000000E+00    0.000000E+00          1
              kr03c18                   log                factor    2.395429E+01    2.000000E+01    2.000000E+03                     p    1.000000E+00    0.000000E+00          1
              kr03c19                   log                factor    1.053024E+01    2.000000E+01    2.000000E+03                     p    1.000000E+00    0.000000E+00          1
              kr03c20                   log                factor    1.493724E+02    2.000000E+01    2.000000E+03                     p    1.000000E+00    0.000000E+00          1
              kr03c21                   log                factor    6.910872E+01    2.000000E+01    2.000000E+03                     p    1.000000E+00    0.000000E+00          1
              kr03c22                   log                factor    6.363636E+02    2.000000E+01    2.000000E+03                     p    1.000000E+00    0.000000E+00          1
              kr03c23                   log                factor    3.919870E+02    2.000000E+01    2.000000E+03                     p    1.000000E+00    0.000000E+00          1
              kr03c24                   log                factor    6.115913E+02    2.000000E+01    2.000000E+03                     p    1.000000E+00    0.000000E+00          1
              kr03c25                   log                factor    3.027854E+02    2.000000E+01    2.000000E+03                     p    1.000000E+00    0.000000E+00          1
              kr03c26                   log                factor    1.844347E+01    2.000000E+01    2.000000E+03                     p    1.000000E+00    0.000000E+00          1
              kr03c27                   log                factor    3.435879E+01    2.000000E+01    2.000000E+03                     p    1.000000E+00    0.000000E+00          1
              kr03c28                   log                factor    3.701696E+02    2.000000E+01    2.000000E+03                     p    1.000000E+00    0.000000E+00          1
              kr03c29                   log                factor    2.660655E+02    2.000000E+01    2.000000E+03                     p    1.000000E+00    0.000000E+00          1
              kr03c30                   log                factor    3.427074E+02    2.000000E+01    2.000000E+03                     p    1.000000E+00    0.000000E+00          1
              kr03c31                   log                factor    5.738294E+02    2.000000E+01    2.000000E+03                     p    1.000000E+00    0.000000E+00          1
              kr03c32                   log                factor    2.866374E+02    2.000000E+01    2.000000E+03                     p    1.000000E+00    0.000000E+00          1
              kr03c33                   log                factor    6.798796E+01    2.000000E+01    2.000000E+03                     p    1.000000E+00    0.000000E+00          1
              kr03c34                   log                factor    1.098776E+01    2.000000E+01    2.000000E+03                     p    1.000000E+00    0.000000E+00          1
              kr03c35                   log                factor    2.075594E+02    2.000000E+01    2.000000E+03                     p    1.000000E+00    0.000000E+00          1
              kr03c36                   log                factor    2.687904E+01    2.000000E+01    2.000000E+03                     p    1.000000E+00    0.000000E+00          1
              kr03c37                   log                factor    1.593449E+02    2.000000E+01    2.000000E+03                     p    1.000000E+00    0.000000E+00          1
              kr03c38                   log                factor    2.273600E+03    2.000000E+01    2.000000E+03                     p    1.000000E+00    0.000000E+00          1
              kr03c39                   log                factor    2.724309E+02    2.000000E+01    2.000000E+03                     p    1.000000E+00    0.000000E+00          1