pcf
* control data
             restart          estimation
       601        75         2         0         3         0
         2         5              single               point         1         0         0            noobsref
   1.000000E+01   2.000000E+00   3.000000E-01   3.000000E-02        10       999          lamforgive        noderforgive
   3.000000E+00   3.000000E+00   1.000000E-03         0         0
   1.000000E-01         1   1.100000E+00               noaui          nosenreuse        noboundscale
        -1   5.000000E-03         4         4   1.000000E-03         4   0.000000E+00         1  -1.000000E+00
         1         1         1         0             jcosave          verboserec          jcosaveitn          reisaveitn          parsaveitn          parsaverun
* singular value decomposition
1
75  1.0e-7
1  0  0
* parameter groups
p  relative    1.000000E-02  0  switch    2.000000E+00             parabolic    1.000000E-05    5.000000E-01               smaller
m  relative    1.000000E-02  0  switch    2.000000E+00             parabolic    1.000000E-05    5.000000E-01               smaller
* parameter data
mult1                     log                factor    6.701279E-01    2.500000E-01    2.500000E+00                     m    1.000000E+00    0.000000E+00          1
kr01c01                   log                factor    5.872971E+01    2.000000E+01    2.000000E+03                     p    1.000000E+00    0.000000E+00          1
kr01c02                   log                factor    2.134883E+01    2.000000E+01    2.000000E+03                     p    1.000000E+00    0.000000E+00          1
kr01c03                   log                factor    1.048778E+02    2.000000E+01    2.000000E+03                     p    1.000000E+00    0.000000E+00          1
kr01c04                   log                factor    1.676847E+02    2.000000E+01    2.000000E+03                     p    1.000000E+00    0.000000E+00          1
kr01c05                   log                factor    6.072563E+02    2.000000E+01    2.000000E+03                     p    1.000000E+00    0.000000E+00          1
kr01c06                   log                factor    1.268007E+01    2.000000E+01    2.000000E+03                     p    1.000000E+00    0.000000E+00          1
kr01c07                   log                factor    1.160142E+02    2.000000E+01    2.000000E+03                     p    1.000000E+00    0.000000E+00          1
kr01c08                   log                factor    4.477952E+02    2.000000E+01    2.000000E+03                     p    1.000000E+00    0.000000E+00          1
kr01c09                   log                factor    1.558825E+02    2.000000E+01    2.000000E+03                     p    1.000000E+00    0.000000E+00          1
kr01c10                   log                factor    1.793483E+02    2.000000E+01    2.000000E+03                     p    1.000000E+00    0.000000E+00          1
kr01c11                   log                factor    1.163813E+02    2.000000E+01    2.000000E+03                     p    1.000000E+00    0.000000E+00          1
kr01c12                   log                factor    3.973066E+02    2.000000E+01    2.000000E+03                     p    1.000000E+00    0.000000E+00          1
kr01c13                   log                factor    1.114894E+02    2.000000E+01    2.000000E+03                     p    1.000000E+00    0.000000E+00          1
kr01c14                   log                factor    1.891346E+02    2.000000E+01    2.000000E+03                     p    1.000000E+00    0.000000E+00          1
kr01c15                   log                factor    1.550996E+03    2.000000E+01    2.000000E+03                     p    1.000000E+00    0.000000E+00          1
kr01c16                   log                factor    1.378233E+02    2.000000E+01    2.000000E+03                     p    1.000000E+00    0.000000E+00          1
kr01c17                   log                factor    8.609106E+01    2.000000E+01    2.000000E+03                     p    1.000000E+00    0.000000E+00          1
kr01c18                   log                factor    3.384632E+02    2.000000E+01    2.000000E+03                     p    1.000000E+00    0.000000E+00          1
kr01c19                   log                factor    1.208536E+01    2.000000E+01    2.000000E+03                     p    1.000000E+00    0.000000E+00          1
kr01c20                   log                factor    1.577049E+02    2.000000E+01    2.000000E+03                     p    1.000000E+00    0.000000E+00          1
kr01c21                   log                factor    4.834358E+02    2.000000E+01    2.000000E+03                     p    1.000000E+00    0.000000E+00          1
kr01c22                   log                factor    5.178673E+01    2.000000E+01    2.000000E+03                     p    1.000000E+00    0.000000E+00          1
kr01c23                   log                factor    1.333817E+02    2.000000E+01    2.000000E+03                     p    1.000000E+00    0.000000E+00          1
kr01c24                   log                factor    4.816701E+02    2.000000E+01    2.000000E+03                     p    1.000000E+00    0.000000E+00          1
kr01c25                   log                factor    1.181123E+02    2.000000E+01    2.000000E+03                     p    1.000000E+00    0.000000E+00          1
kr01c26                   log                factor    4.465472E+02    2.000000E+01    2.000000E+03                     p    1.000000E+00    0.000000E+00          1
kr01c27                   log                factor    2.388675E+02    2.000000E+01    2.000000E+03                     p    1.000000E+00    0.000000E+00          1
kr01c28                   log                factor    5.618052E+01    2.000000E+01    2.000000E+03                     p    1.000000E+00    0.000000E+00          1
kr01c29                   log                factor    2.613837E+02    2.000000E+01    2.000000E+03                     p    1.000000E+00    0.000000E+00          1
kr01c30                   log                factor    2.090011E+03    2.000000E+01    2.000000E+03                     p    1.000000E+00    0.000000E+00          1
kr01c31                   log                factor    5.177136E+02    2.000000E+01    2.000000E+03                     p    1.000000E+00    0.000000E+00          1
kr01c32                   log                factor    1.690894E+02    2.000000E+01    2.000000E+03                     p    1.000000E+00    0.000000E+00          1
kr01c33                   log                factor    3.968460E+02    2.000000E+01    2.000000E+03                     p    1.000000E+00    0.000000E+00          1
kr01c34                   log                factor    2.635796E+02    2.000000E+01    2.000000E+03                     p    1.000000E+00    0.000000E+00          1
kr01c35                   log                factor    1.578426E+03    2.000000E+01    2.000000E+03                     p    1.000000E+00    0.000000E+00          1
kr01c36                   log                factor    4.137676E+02    2.000000E+01    2.000000E+03                     p    1.000000E+00    0.000000E+00          1
kr01c37                   log                factor    2.452775E+02    2.000000E+01    2.000000E+03                     p    1.000000E+00    0.000000E+00          1
kr01c38                   log                factor    9.139045E+01    2.000000E+01    2.000000E+03                     p    1.000000E+00    0.000000E+00          1
kr01c39                   log                factor    7.008029E+02    2.000000E+01    2.000000E+03                     p    1.000000E+00    0.000000E+00          1
kr01c40                   log                factor    6.384193E+01    2.000000E+01    2.000000E+03                     p    1.000000E+00    0.000000E+00          1
kr01c41                   log                factor    3.001577E+02    2.000000E+01    2.000000E+03                     p    1.000000E+00    0.000000E+00          1
kr01c42                   log                factor    4.290593E+01    2.000000E+01    2.000000E+03                     p    1.000000E+00    0.000000E+00          1
kr01c43                   log                factor    7.687703E+02    2.000000E+01    2.000000E+03                     p    1.000000E+00    0.000000E+00          1
kr01c44                   log                factor    8.712329E+01    2.000000E+01    2.000000E+03                     p    1.000000E+00    0.000000E+00          1
kr01c45                   log                factor    6.093390E+01    2.000000E+01    2.000000E+03                     p    1.000000E+00    0.000000E+00          1
kr01c46                   log                factor    4.289695E+02    2.000000E+01    2.000000E+03                     p    1.000000E+00    0.000000E+00          1
kr01c47                   log                factor    2.766868E+02    2.000000E+01    2.000000E+03                     p    1.000000E+00    0.000000E+00          1
kr01c48                   log                factor    1.005866E+03    2.000000E+01    2.000000E+03                     p    1.000000E+00    0.000000E+00          1
kr01c49                   log                factor    7.829008E+01    2.000000E+01    2.000000E+03                     p    1.000000E+00    0.000000E+00          1
kr01c50                   log                factor    1.231206E+02    2.000000E+01    2.000000E+03                     p    1.000000E+00    0.000000E+00          1
kr01c51                   log                factor    3.608464E+03    2.000000E+01    2.000000E+03                     p    1.000000E+00    0.000000E+00          1
kr01c52                   log                factor    1.607021E+02    2.000000E+01    2.000000E+03                     p    1.000000E+00    0.000000E+00          1
kr01c53                   log                factor    3.516779E+02    2.000000E+01    2.000000E+03                     p    1.000000E+00    0.000000E+00          1
kr01c54                   log                factor    1.191488E+02    2.000000E+01    2.000000E+03                     p    1.000000E+00    0.000000E+00          1
kr01c55                   log                factor    2.076873E+03    2.000000E+01    2.000000E+03                     p    1.000000E+00    0.000000E+00          1
kr01c56                   log                factor    2.719842E+02    2.000000E+01    2.000000E+03                     p    1.000000E+00    0.000000E+00          1
kr01c57                   log                factor    2.194609E+02    2.000000E+01    2.000000E+03                     p    1.000000E+00    0.000000E+00          1
kr01c58                   log                factor    6.925519E+02    2.000000E+01    2.000000E+03                     p    1.000000E+00    0.000000E+00          1
kr01c59                   log                factor    1.711887E+03    2.000000E+01    2.000000E+03                     p    1.000000E+00    0.000000E+00          1
kr01c60                   log                factor    1.197877E+03    2.000000E+01    2.000000E+03                     p    1.000000E+00    0.000000E+00          1
kr02c01                   log                factor    1.773326E+02    2.000000E+01    2.000000E+03                     p    1.000000E+00    0.000000E+00          1
kr02c02                   log                factor    2.924016E+02    2.000000E+01    2.000000E+03                     p    1.000000E+00    0.000000E+00          1
kr02c03                   log                factor    4.858861E+02    2.000000E+01    2.000000E+03                     p    1.000000E+00    0.000000E+00          1
kr02c04                   log                factor    5.371647E+01    2.000000E+01    2.000000E+03                     p    1.000000E+00    0.000000E+00          1
kr02c05                   log                factor    2.109208E+02    2.000000E+01    2.000000E+03                     p    1.000000E+00    0.000000E+00          1
kr02c06                   log                factor    4.561405E+02    2.000000E+01    2.000000E+03                     p    1.000000E+00    0.000000E+00          1
kr02c07                   log                factor    6.779952E+01    2.000000E+01    2.000000E+03                     p    1.000000E+00    0.000000E+00          1
kr02c08                   log                factor    2.709710E+01    2.000000E+01    2.000000E+03                     p    1.000000E+00    0.000000E+00          1
kr02c09                   log                factor    4.159791E+01    2.000000E+01    2.000000E+03                     p    1.000000E+00    0.000000E+00          1
kr02c10                   log                factor    1.588208E+02    2.000000E+01    2.000000E+03                     p    1.000000E+00    0.000000E+00          1
kr02c11                   log                factor    2.178143E+02    2.000000E+01    2.000000E+03                     p    1.000000E+00    0.000000E+00          1
kr02c12                   log                factor    1.962193E+01    2.000000E+01    2.000000E+03                     p    1.000000E+00    0.000000E+00          1
kr02c13                   log                factor    1.605912E+02    2.000000E+01    2.000000E+03                     p    1.000000E+00    0.000000E+00          1
kr02c14                   log                factor    7.765791E+03    2.000000E+01    2.000000E+03                     p    1.000000E+00    0.000000E+00          1
kr02c15                   log                factor    9.391236E+01    2.000000E+01    2.000000E+03                     p    1.000000E+00    0.000000E+00          1
kr02c16                   log                factor    5.072335E+01    2.000000E+01    2.000000E+03                     p    1.000000E+00    0.000000E+00          1
kr02c17                   log                factor    1.023149E+02    2.000000E+01    2.000000E+03                     p    1.000000E+00    0.000000E+00          1
kr02c18                   log                factor    5.158088E+01    2.000000E+01    2.000000E+03                     p    1.000000E+00    0.000000E+00          1
kr02c19                   log                factor    1.035366E+03    2.000000E+01    2.000000E+03                     p    1.000000E+00    0.000000E+00          1
kr02c20                   log                factor    1.558638E+02    2.000000E+01    2.000000E+03                     p    1.000000E+00    0.000000E+00          1
kr02c21                   log                factor    3.803840E+02    2.000000E+01    2.000000E+03                     p    1.000000E+00    0.000000E+00          1
kr02c22                   log                factor    1.575918E+02    2.000000E+01    2.000000E+03                     p    1.000000E+00    0.000000E+00          1
kr02c23                   log                factor    5.161788E+01    2.000000E+01    2.000000E+03                     p    1.000000E+00    0.000000E+00          1
kr02c24                   log                factor    9.410650E+02    2.000000E+01    2.000000E+03                     p    1.000000E+00    0.000000E+00          1
kr02c25                   log                factor    9.307878E+01    2.000000E+01    2.000000E+03                     p    1.000000E+00    0.000000E+00          1
kr02c26                   log                factor    7.845076E+01    2.000000E+01    2.000000E+03                     p    1.000000E+00    0.000000E+00          1
kr02c27                   log                factor    2.488543E+02    2.000000E+01    2.000000E+03                     p    1.000000E+00    0.000000E+00          1
kr02c28                   log                factor    1.681791E+03    2.000000E+01    2.000000E+03                     p    1.000000E+00    0.000000E+00          1
kr02c29                   log                factor    8.278007E+02    2.000000E+01    2.000000E+03                     p    1.000000E+00    0.000000E+00          1
kr02c30                   log                factor    4.437728E+01    2.000000E+01    2.000000E+03                     p    1.000000E+00    0.000000E+00          1
kr02c31                   log                factor    5.418272E+01    2.000000E+01    2.000000E+03                     p    1.000000E+00    0.000000E+00          1
kr02c32                   log                factor    2.984026E+02    2.000000E+01    2.000000E+03                     p    1.000000E+00    0.000000E+00          1
kr02c33                   log                factor    2.471980E+02    2.000000E+01    2.000000E+03                     p    1.000000E+00    0.000000E+00          1
kr02c34                   log                factor    5.338499E+02    2.000000E+01    2.000000E+03                     p    1.000000E+00    0.000000E+00          1
kr02c35                   log                factor    8.447779E+01    2.000000E+01    2.000000E+03                     p    1.000000E+00    0.000000E+00          1
kr02c36                   log                factor    1.227896E+02    2.000000E+01    2.000000E+03                     p    1.000000E+00    0.000000E+00          1
kr02c37                   log                factor    2.497343E+02    2.000000E+01    2.000000E+03                     p    1.000000E+00    0.000000E+00          1
kr02c38                   log                factor    3.046251E+02    2.000000E+01    2.000000E+03                     p    1.000000E+00    0.000000E+00          1
kr02c39                   log                factor    4.939632E+02    2.000000E+01    2.000000E+03                     p    1.000000E+00    0.000000E+00          1
kr02c40                   log                factor    1.461086E+03    2.000000E+01    2.000000E+03                     p    1.000000E+00    0.000000E+00          1
kr02c41                   log                factor    2.217735E+02    2.000000E+01    2.000000E+03                     p    1.000000E+00    0.000000E+00          1
kr02c42                   log                factor    1.773099E+02    2.000000E+01    2.000000E+03                     p    1.000000E+00    0.000000E+00          1
kr02c43                   log                factor    1.016255E+02    2.000000E+01    2.000000E+03                     p    1.000000E+00    0.000000E+00          1
kr02c44                   log                factor    3.470104E+02    2.000000E+01    2.000000E+03                     p    1.000000E+00    0.000000E+00          1
kr02c45                   log                factor    1.181587E+02    2.000000E+01    2.000000E+03                     p    1.000000E+00    0.000000E+00          1
kr02c46                   log                factor    1.404284E+02    2.000000E+01    2.000000E+03                     p    1.000000E+00    0.000000E+00          1
kr02c47                   log                factor    1.352242E+02    2.000000E+01    2.000000E+03                     p    1.000000E+00    0.000000E+00          1
kr02c48                   log                factor    2.855636E+02    2.000000E+01    2.000000E+03                     p    1.000000E+00    0.000000E+00          1
kr02c49                   log                factor    8.370529E+01    2.000000E+01    2.000000E+03                     p    1.000000E+00    0.000000E+00          1
kr02c50                   log                factor    5.615573E+01    2.000000E+01    2.000000E+03                     p    1.000000E+00    0.000000E+00          1
kr02c51                   log                factor    2.633366E+02    2.000000E+01    2.000000E+03                     p    1.000000E+00    0.000000E+00          1
kr02c52                   log                factor    6.176386E+02    2.000000E+01    2.000000E+03                     p    1.000000E+00    0.000000E+00          1
kr02c53                   log                factor    2.053490E+02    2.000000E+01    2.000000E+03                     p    1.000000E+00    0.000000E+00          1
kr02c54                   log                factor    1.189680E+02    2.000000E+01    2.000000E+03                     p    1.000000E+00    0.000000E+00          1
kr02c55                   log                factor    4.419556E+01    2.000000E+01    2.000000E+03                     p    1.000000E+00    0.000000E+00          1
kr02c56                   log                factor    1.325107E+03    2.000000E+01    2.000000E+03                     p    1.000000E+00    0.000000E+00          1
kr02c57                   log                factor    3.595624E+01    2.000000E+01    2.000000E+03                     p    1.000000E+00    0.000000E+00          1
kr02c58                   log                factor    1.146877E+02    2.000000E+01    2.000000E+03                     p    1.000000E+00    0.000000E+00          1
kr02c59                   log                factor    2.501131E+02    2.000000E+01    2.000000E+03                     p    1.000000E+00    0.000000E+00          1
kr02c60                   log                factor    1.598526E+02    2.000000E+01    2.000000E+03                     p    1.000000E+00    0.000000E+00          1
kr03c01                   log                factor    3.681844E+02    2.000000E+01    2.000000E+03                     p    1.000000E+00    0.000000E+00          1
kr03c02                   log                factor    8.426287E+01    2.000000E+01    2.000000E+03                     p    1.000000E+00    0.000000E+00          1
kr03c03                   log                factor    2.305697E+02    2.000000E+01    2.000000E+03                     p    1.000000E+00    0.000000E+00          1
kr03c04                   log                factor    3.338657E+01    2.000000E+01    2.000000E+03                     p    1.000000E+00    0.000000E+00          1
kr03c05                   log                factor    5.006266E+01    2.000000E+01    2.000000E+03                     p    1.000000E+00    0.000000E+00          1
kr03c06                   log                factor    1.739980E+02    2.000000E+01    2.000000E+03                     p    1.000000E+00    0.000000E+00          1
kr03c07                   log                factor    2.466497E+01    2.000000E+01    2.000000E+03                     p    1.000000E+00    0.000000E+00          1
kr03c08                   log                factor    1.734186E+01    2.000000E+01    2.000000E+03                     p    1.000000E+00    0.000000E+00          1
kr03c09                   log                factor    1.617717E+02    2.000000E+01    2.000000E+03                     p    1.000000E+00    0.000000E+00          1
kr03c10                   log                factor    1.116471E+02    2.000000E+01    2.000000E+03                     p    1.000000E+00    0.000000E+00          1
kr03c11                   log                factor    2.688721E+02    2.000000E+01    2.000000E+03                     p    1.000000E+00    0.000000E+00          1
kr03c12                   log                factor    5.491597E+02    2.000000E+01    2.000000E+03                     p    1.000000E+00    0.000000E+00          1
kr03c13                   log                factor    4.110755E+01    2.000000E+01    2.000000E+03                     p    1.000000E+00    0.000000E+00          1
kr03c14                   log                factor    3.810630E+02    2.000000E+01    2.000000E+03                     p    1.000000E+00    0.000000E+00          1
kr03c15                   log                factor    2.619487E+02    2.000000E+01    2.000000E+03                     p    1.000000E+00    0.000000E+00          1
kr03c16                   log                factor    3.393282E+01    2.000000E+01    2.000000E+03                     p    1.000000E+00    0.000000E+00          1
kr03c17                   log                factor    1.151282E+02    2.000000E+01    2.000000E+03                     p    1.000000E+00    0.000000E+00          1
kr03c18                   log                factor    1.283668E+02    2.000000E+01    2.000000E+03                     p    1.000000E+00    0.000000E+00          1
kr03c19                   log                factor    5.012429E+01    2.000000E+01    2.000000E+03                     p    1.000000E+00    0.000000E+00          1
kr03c20                   log                factor    3.293963E+02    2.000000E+01    2.000000E+03                     p    1.000000E+00    0.000000E+00          1
kr03c21                   log                factor    8.516378E+01    2.000000E+01    2.000000E+03                     p    1.000000E+00    0.000000E+00          1
kr03c22                   log                factor    3.853162E+02    2.000000E+01    2.000000E+03                     p    1.000000E+00    0.000000E+00          1
kr03c23                   log                factor    1.134808E+02    2.000000E+01    2.000000E+03                     p    1.000000E+00    0.000000E+00          1
kr03c24                   log                factor    1.862045E+03    2.000000E+01    2.000000E+03                     p    1.000000E+00    0.000000E+00          1
kr03c25                   log                factor    3.856479E+01    2.000000E+01    2.000000E+03                     p    1.000000E+00    0.000000E+00          1
kr03c26                   log                factor    5.221427E+02    2.000000E+01    2.000000E+03                     p    1.000000E+00    0.000000E+00          1
kr03c27                   log                factor    1.243184E+02    2.000000E+01    2.000000E+03                     p    1.000000E+00    0.000000E+00          1
kr03c28                   log                factor    4.284636E+02    2.000000E+01    2.000000E+03                     p    1.000000E+00    0.000000E+00          1
kr03c29                   log                factor    1.658408E+02    2.000000E+01    2.000000E+03                     p    1.000000E+00    0.000000E+00          1
kr03c30                   log                factor    2.512988E+02    2.000000E+01    2.000000E+03                     p    1.000000E+00    0.000000E+00          1
kr03c31                   log                factor    5.757356E+02    2.000000E+01    2.000000E+03                     p    1.000000E+00    0.000000E+00          1
kr03c32                   log                factor    1.796328E+02    2.000000E+01    2.000000E+03                     p    1.000000E+00    0.000000E+00          1
kr03c33                   log                factor    6.763224E+01    2.000000E+01    2.000000E+03                     p    1.000000E+00    0.000000E+00          1
kr03c34                   log                factor    8.265887E+01    2.000000E+01    2.000000E+03                     p    1.000000E+00    0.000000E+00          1
kr03c35                   log                factor    8.679263E+01    2.000000E+01    2.000000E+03                     p    1.000000E+00    0.000000E+00          1
kr03c36                   log                factor    1.335644E+02    2.000000E+01    2.000000E+03                     p    1.000000E+00    0.000000E+00          1
kr03c37                   log                factor    6.989503E+02    2.000000E+01    2.000000E+03                     p    1.000000E+00    0.000000E+00          1
kr03c38                   log                factor    2.285929E+01    2.000000E+01    2.000000E+03                     p    1.000000E+00    0.000000E+00          1
kr03c39                   log                factor    1.299349E+02    2.000000E+01    2.000000E+03                     p    1.000000E+00    0.000000E+00          1
kr03c40                   log                factor    1.651754E+03    2.000000E+01    2.000000E+03                     p    1.000000E+00    0.000000E+00          1
kr03c41                   log                factor    5.248318E+02    2.000000E+01    2.000000E+03                     p    1.000000E+00    0.000000E+00          1
kr03c42                   log                factor    2.637749E+02    2.000000E+01    2.000000E+03                     p    1.000000E+00    0.000000E+00          1
kr03c43                   log                factor    1.022259E+03    2.000000E+01    2.000000E+03                     p    1.000000E+00    0.000000E+00          1
kr03c44                   log                factor    3.435368E+02    2.000000E+01    2.000000E+03                     p    1.000000E+00    0.000000E+00          1
kr03c45                   log                factor    2.826029E+02    2.000000E+01    2.000000E+03                     p    1.000000E+00    0.000000E+00          1
kr03c46                   log                factor    7.087657E+02    2.000000E+01    2.000000E+03                     p    1.000000E+00    0.000000E+00          1
kr03c47                   log                factor    9.806797E+01    2.000000E+01    2.000000E+03                     p    1.000000E+00    0.000000E+00          1
kr03c48                   log                factor    9.427289E+01    2.000000E+01    2.000000E+03                     p    1.000000E+00    0.000000E+00          1
kr03c49                   log                factor    1.670234E+02    2.000000E+01    2.000000E+03                     p    1.000000E+00    0.000000E+00          1
kr03c50                   log                factor    6.388826E+01    2.000000E+01    2.000000E+03                     p    1.000000E+00    0.000000E+00          1
kr03c51                   log                factor    1.522668E+02    2.000000E+01    2.000000E+03                     p    1.000000E+00    0.000000E+00          1
kr03c52                   log                factor    2.627240E+02    2.000000E+01    2.000000E+03                     p    1.000000E+00    0.000000E+00          1
kr03c53                   log                factor    4.596408E+02    2.000000E+01    2.000000E+03                     p    1.000000E+00    0.000000E+00          1