pcf
* control data
             restart          estimation
       601        75         2         0         3         0
         2         5              single               point         1         0         0            noobsref
   1.000000E+01   2.000000E+00   3.000000E-01   3.000000E-02        10       999          lamforgive        noderforgive
   3.000000E+00   3.000000E+00   1.000000E-03         0         0
   1.000000E-01         1   1.100000E+00               noaui          nosenreuse        noboundscale
        -1   5.000000E-03         4         4   1.000000E-03         4   0.000000E+00         1  -1.000000E+00
         1         1         1         0             jcosave          verboserec          jcosaveitn          reisaveitn          parsaveitn        noparsaverun
* singular value decomposition
1
75  1.0e-7
1  0  0
* parameter groups
                    p              relative    1.000000E-02  0                switch    2.000000E+00             parabolic    1.000000E-05    5.000000E-01               smaller
                    m              relative    1.000000E-02  0                switch    2.000000E+00             parabolic    1.000000E-05    5.000000E-01               smaller
* parameter data
                mult1                   log                factor    1.579033E+00    2.500000E-01    2.500000E+00                     m    1.000000E+00    0.000000E+00          1
              kr01c01                   log                factor    1.134257E+03    2.000000E+01    2.000000E+03                     p    1.000000E+00    0.000000E+00          1
              kr01c02                   log                factor    8.848495E+01    2.000000E+01    2.000000E+03                     p    1.000000E+00    0.000000E+00          1
              kr01c03                   log                factor    6.408388E+02    2.000000E+01    2.000000E+03                     p    1.000000E+00    0.000000E+00          1
              kr01c04                   log                factor    7.598571E+01    2.000000E+01    2.000000E+03                     p    1.000000E+00    0.000000E+00          1
              kr01c05                   log                factor    7.362474E+02    2.000000E+01    2.000000E+03                     p    1.000000E+00    0.000000E+00          1
              kr01c06                   log                factor    6.385243E+01    2.000000E+01    2.000000E+03                     p    1.000000E+00    0.000000E+00          1
              kr01c07                   log                factor    3.102088E+01    2.000000E+01    2.000000E+03                     p    1.000000E+00    0.000000E+00          1
              kr01c08                   log                factor    1.706630E+02    2.000000E+01    2.000000E+03                     p    1.000000E+00    0.000000E+00          1
              kr01c09                   log                factor    1.056621E+02    2.000000E+01    2.000000E+03                     p    1.000000E+00    0.000000E+00          1
              kr01c10                   log                factor    7.060157E+02    2.000000E+01    2.000000E+03                     p    1.000000E+00    0.000000E+00          1
              kr01c11                   log                factor    7.287512E+02    2.000000E+01    2.000000E+03                     p    1.000000E+00    0.000000E+00          1
              kr01c12                   log                factor    2.360404E+02    2.000000E+01    2.000000E+03                     p    1.000000E+00    0.000000E+00          1
              kr01c13                   log                factor    4.211852E+02    2.000000E+01    2.000000E+03                     p    1.000000E+00    0.000000E+00          1
              kr01c14                   log                factor    3.479000E+01    2.000000E+01    2.000000E+03                     p    1.000000E+00    0.000000E+00          1
              kr01c15                   log                factor    2.472142E+02    2.000000E+01    2.000000E+03                     p    1.000000E+00    0.000000E+00          1
              kr01c16                   log                factor    1.635877E+02    2.000000E+01    2.000000E+03                     p    1.000000E+00    0.000000E+00          1
              kr01c17                   log                factor    2.002927E+02    2.000000E+01    2.000000E+03                     p    1.000000E+00    0.000000E+00          1
              kr01c18                   log                factor    1.630822E+01    2.000000E+01    2.000000E+03                     p    1.000000E+00    0.000000E+00          1
              kr01c19                   log                factor    2.102310E+02    2.000000E+01    2.000000E+03                     p    1.000000E+00    0.000000E+00          1
              kr01c20                   log                factor    2.973484E+01    2.000000E+01    2.000000E+03                     p    1.000000E+00    0.000000E+00          1
              kr01c21                   log                factor    9.411965E+01    2.000000E+01    2.000000E+03                     p    1.000000E+00    0.000000E+00          1
              kr01c22                   log                factor    6.510869E+01    2.000000E+01    2.000000E+03                     p    1.000000E+00    0.000000E+00          1
              kr01c23                   log                factor    2.837465E+02    2.000000E+01    2.000000E+03                     p    1.000000E+00    0.000000E+00          1
              kr01c24                   log                factor    2.760774E+02    2.000000E+01    2.000000E+03                     p    1.000000E+00    0.000000E+00          1
              kr01c25                   log                factor    3.316242E+02    2.000000E+01    2.000000E+03                     p    1.000000E+00    0.000000E+00          1
              kr01c26                   log                factor    1.137264E+02    2.000000E+01    2.000000E+03                     p    1.000000E+00    0.000000E+00          1
              kr01c27                   log                factor    1.478680E+02    2.000000E+01    2.000000E+03                     p    1.000000E+00    0.000000E+00          1
              kr01c28                   log                factor    4.370077E+01    2.000000E+01    2.000000E+03                     p    1.000000E+00    0.000000E+00          1
              kr01c29                   log                factor    3.401664E+01    2.000000E+01    2.000000E+03                     p    1.000000E+00    0.000000E+00          1
              kr01c30                   log                factor    1.364079E+03    2.000000E+01    2.000000E+03                     p    1.000000E+00    0.000000E+00          1
              kr01c31                   log                factor    6.001399E+02    2.000000E+01    2.000000E+03                     p    1.000000E+00    0.000000E+00          1
              kr01c32                   log                factor    5.089617E+02    2.000000E+01    2.000000E+03                     p    1.000000E+00    0.000000E+00          1
              kr01c33                   log                factor    3.883464E+02    2.000000E+01    2.000000E+03                     p    1.000000E+00    0.000000E+00          1
              kr01c34                   log                factor    1.041654E+03    2.000000E+01    2.000000E+03                     p    1.000000E+00    0.000000E+00          1
              kr01c35                   log                factor    2.357110E+02    2.000000E+01    2.000000E+03                     p    1.000000E+00    0.000000E+00          1
              kr01c36                   log                factor    5.234479E+02    2.000000E+01    2.000000E+03                     p    1.000000E+00    0.000000E+00          1
              kr01c37                   log                factor    2.006022E+02    2.000000E+01    2.000000E+03                     p    1.000000E+00    0.000000E+00          1
              kr01c38                   log                factor    4.007103E+02    2.000000E+01    2.000000E+03                     p    1.000000E+00    0.000000E+00          1
              kr01c39                   log                factor    8.375699E+01    2.000000E+01    2.000000E+03                     p    1.000000E+00    0.000000E+00          1
              kr01c40                   log                factor    3.954199E+02    2.000000E+01    2.000000E+03                     p    1.000000E+00    0.000000E+00          1
              kr01c41                   log                factor    1.432401E+03    2.000000E+01    2.000000E+03                     p    1.000000E+00    0.000000E+00          1
              kr01c42                   log                factor    2.487945E+02    2.000000E+01    2.000000E+03                     p    1.000000E+00    0.000000E+00          1
              kr01c43                   log                factor    2.691081E+02    2.000000E+01    2.000000E+03                     p    1.000000E+00    0.000000E+00          1
              kr01c44                   log                factor    3.755550E+01    2.000000E+01    2.000000E+03                     p    1.000000E+00    0.000000E+00          1
              kr01c45                   log                factor    1.121130E+02    2.000000E+01    2.000000E+03                     p    1.000000E+00    0.000000E+00          1
              kr01c46                   log                factor    1.729575E+02    2.000000E+01    2.000000E+03                     p    1.000000E+00    0.000000E+00          1
              kr01c47                   log                factor    6.754297E+02    2.000000E+01    2.000000E+03                     p    1.000000E+00    0.000000E+00          1
              kr01c48                   log                factor    3.040339E+02    2.000000E+01    2.000000E+03                     p    1.000000E+00    0.000000E+00          1
              kr01c49                   log                factor    1.147494E+02    2.000000E+01    2.000000E+03                     p    1.000000E+00    0.000000E+00          1
              kr01c50                   log                factor    6.636229E+01    2.000000E+01    2.000000E+03                     p    1.000000E+00    0.000000E+00          1
              kr01c51                   log                factor    7.120298E+01    2.000000E+01    2.000000E+03                     p    1.000000E+00    0.000000E+00          1
              kr01c52                   log                factor    1.354886E+02    2.000000E+01    2.000000E+03                     p    1.000000E+00    0.000000E+00          1
              kr01c53                   log                factor    2.760826E+02    2.000000E+01    2.000000E+03                     p    1.000000E+00    0.000000E+00          1
              kr01c54                   log                factor    5.558562E+02    2.000000E+01    2.000000E+03                     p    1.000000E+00    0.000000E+00          1
              kr01c55                   log                factor    1.376718E+02    2.000000E+01    2.000000E+03                     p    1.000000E+00    0.000000E+00          1
              kr01c56                   log                factor    2.555510E+02    2.000000E+01    2.000000E+03                     p    1.000000E+00    0.000000E+00          1
              kr01c57                   log                factor    5.306261E+01    2.000000E+01    2.000000E+03                     p    1.000000E+00    0.000000E+00          1
              kr01c58                   log                factor    2.503674E+02    2.000000E+01    2.000000E+03                     p    1.000000E+00    0.000000E+00          1
              kr01c59                   log                factor    3.742475E+02    2.000000E+01    2.000000E+03                     p    1.000000E+00    0.000000E+00          1
              kr01c60                   log                factor    2.604227E+02    2.000000E+01    2.000000E+03                     p    1.000000E+00    0.000000E+00          1
              kr02c01                   log                factor    2.221924E+02    2.000000E+01    2.000000E+03                     p    1.000000E+00    0.000000E+00          1
              kr02c02                   log                factor    7.916822E+01    2.000000E+01    2.000000E+03                     p    1.000000E+00    0.000000E+00          1
              kr02c03                   log                factor    1.168572E+02    2.000000E+01    2.000000E+03                     p    1.000000E+00    0.000000E+00          1
              kr02c04                   log                factor    2.041273E+02    2.000000E+01    2.000000E+03                     p    1.000000E+00    0.000000E+00          1
              kr02c05                   log                factor    4.166419E+01    2.000000E+01    2.000000E+03                     p    1.000000E+00    0.000000E+00          1
              kr02c06                   log                factor    9.608776E+02    2.000000E+01    2.000000E+03                     p    1.000000E+00    0.000000E+00          1
              kr02c07                   log                factor    4.122759E+02    2.000000E+01    2.000000E+03                     p    1.000000E+00    0.000000E+00          1
              kr02c08                   log                factor    9.442138E+02    2.000000E+01    2.000000E+03                     p    1.000000E+00    0.000000E+00          1
              kr02c09                   log                factor    7.624276E+02    2.000000E+01    2.000000E+03                     p    1.000000E+00    0.000000E+00          1
              kr02c10                   log                factor    1.096093E+03    2.000000E+01    2.000000E+03                     p    1.000000E+00    0.000000E+00          1
              kr02c11                   log                factor    9.468481E+01    2.000000E+01    2.000000E+03                     p    1.000000E+00    0.000000E+00          1
              kr02c12                   log                factor    1.712380E+03    2.000000E+01    2.000000E+03                     p    1.000000E+00    0.000000E+00          1
              kr02c13                   log                factor    1.989790E+02    2.000000E+01    2.000000E+03                     p    1.000000E+00    0.000000E+00          1
              kr02c14                   log                factor    1.729090E+02    2.000000E+01    2.000000E+03                     p    1.000000E+00    0.000000E+00          1
              kr02c15                   log                factor    1.055461E+03    2.000000E+01    2.000000E+03                     p    1.000000E+00    0.000000E+00          1
              kr02c16                   log                factor    9.831063E+01    2.000000E+01    2.000000E+03                     p    1.000000E+00    0.000000E+00          1
              kr02c17                   log                factor    2.732994E+02    2.000000E+01    2.000000E+03                     p    1.000000E+00    0.000000E+00          1
              kr02c18                   log                factor    6.905590E+02    2.000000E+01    2.000000E+03                     p    1.000000E+00    0.000000E+00          1
              kr02c19                   log                factor    1.408531E+01    2.000000E+01    2.000000E+03                     p    1.000000E+00    0.000000E+00          1
              kr02c20                   log                factor    6.875753E+02    2.000000E+01    2.000000E+03                     p    1.000000E+00    0.000000E+00          1
              kr02c21                   log                factor    6.948238E+02    2.000000E+01    2.000000E+03                     p    1.000000E+00    0.000000E+00          1
              kr02c22                   log                factor    6.493129E+01    2.000000E+01    2.000000E+03                     p    1.000000E+00    0.000000E+00          1
              kr02c23                   log                factor    1.186479E+02    2.000000E+01    2.000000E+03                     p    1.000000E+00    0.000000E+00          1
              kr02c24                   log                factor    1.398421E+02    2.000000E+01    2.000000E+03                     p    1.000000E+00    0.000000E+00          1
              kr02c25                   log                factor    1.623949E+02    2.000000E+01    2.000000E+03                     p    1.000000E+00    0.000000E+00          1
              kr02c26                   log                factor    5.083068E+01    2.000000E+01    2.000000E+03                     p    1.000000E+00    0.000000E+00          1
              kr02c27                   log                factor    2.784788E+02    2.000000E+01    2.000000E+03                     p    1.000000E+00    0.000000E+00          1
              kr02c28                   log                factor    9.471590E+02    2.000000E+01    2.000000E+03                     p    1.000000E+00    0.000000E+00          1
              kr02c29                   log                factor    8.229273E+01    2.000000E+01    2.000000E+03                     p    1.000000E+00    0.000000E+00          1
              kr02c30                   log                factor    1.368316E+02    2.000000E+01    2.000000E+03                     p    1.000000E+00    0.000000E+00          1
              kr02c31                   log                factor    3.678037E+02    2.000000E+01    2.000000E+03                     p    1.000000E+00    0.000000E+00          1
              kr02c32                   log                factor    4.590160E+02    2.000000E+01    2.000000E+03                     p    1.000000E+00    0.000000E+00          1
              kr02c33                   log                factor    1.157616E+03    2.000000E+01    2.000000E+03                     p    1.000000E+00    0.000000E+00          1
              kr02c34                   log                factor    1.185719E+02    2.000000E+01    2.000000E+03                     p    1.000000E+00    0.000000E+00          1
              kr02c35                   log                factor    4.496754E+01    2.000000E+01    2.000000E+03                     p    1.000000E+00    0.000000E+00          1
              kr02c36                   log                factor    1.399706E+03    2.000000E+01    2.000000E+03                     p    1.000000E+00    0.000000E+00          1
              kr02c37                   log                factor    3.874446E+02    2.000000E+01    2.000000E+03                     p    1.000000E+00    0.000000E+00          1
              kr02c38                   log                factor    9.362048E+01    2.000000E+01    2.000000E+03                     p    1.000000E+00    0.000000E+00          1
              kr02c39                   log                factor    5.954606E+01    2.000000E+01    2.000000E+03                     p    1.000000E+00    0.000000E+00          1
              kr02c40                   log                factor    2.454659E+03    2.000000E+01    2.000000E+03                     p    1.000000E+00    0.000000E+00          1
              kr02c41                   log                factor    1.043911E+02    2.000000E+01    2.000000E+03                     p    1.000000E+00    0.000000E+00          1
              kr02c42                   log                factor    3.696847E+01    2.000000E+01    2.000000E+03                     p    1.000000E+00    0.000000E+00          1
              kr02c43                   log                factor    4.019548E+02    2.000000E+01    2.000000E+03                     p    1.000000E+00    0.000000E+00          1
              kr02c44                   log                factor    3.887800E+02    2.000000E+01    2.000000E+03                     p    1.000000E+00    0.000000E+00          1
              kr02c45                   log                factor    3.863600E+02    2.000000E+01    2.000000E+03                     p    1.000000E+00    0.000000E+00          1
              kr02c46                   log                factor    1.477262E+02    2.000000E+01    2.000000E+03                     p    1.000000E+00    0.000000E+00          1
              kr02c47                   log                factor    3.272347E+03    2.000000E+01    2.000000E+03                     p    1.000000E+00    0.000000E+00          1
              kr02c48                   log                factor    6.911373E+01    2.000000E+01    2.000000E+03                     p    1.000000E+00    0.000000E+00          1
              kr02c49                   log                factor    3.290871E+02    2.000000E+01    2.000000E+03                     p    1.000000E+00    0.000000E+00          1
              kr02c50                   log                factor    3.284857E+01    2.000000E+01    2.000000E+03                     p    1.000000E+00    0.000000E+00          1
              kr02c51                   log                factor    2.423303E+01    2.000000E+01    2.000000E+03                     p    1.000000E+00    0.000000E+00          1
              kr02c52                   log                factor    9.020654E+02    2.000000E+01    2.000000E+03                     p    1.000000E+00    0.000000E+00          1
              kr02c53                   log                factor    1.550073E+02    2.000000E+01    2.000000E+03                     p    1.000000E+00    0.000000E+00          1
              kr02c54                   log                factor    2.801611E+03    2.000000E+01    2.000000E+03                     p    1.000000E+00    0.000000E+00          1
              kr02c55                   log                factor    1.520524E+02    2.000000E+01    2.000000E+03                     p    1.000000E+00    0.000000E+00          1
              kr02c56                   log                factor    6.393748E+01    2.000000E+01    2.000000E+03                     p    1.000000E+00    0.000000E+00          1
              kr02c57                   log                factor    6.414815E+01    2.000000E+01    2.000000E+03                     p    1.000000E+00    0.000000E+00          1
              kr02c58                   log                factor    2.082251E+02    2.000000E+01    2.000000E+03                     p    1.000000E+00    0.000000E+00          1
              kr02c59                   log                factor    1.679940E+02    2.000000E+01    2.000000E+03                     p    1.000000E+00    0.000000E+00          1
              kr02c60                   log                factor    1.182569E+02    2.000000E+01    2.000000E+03                     p    1.000000E+00    0.000000E+00          1
              kr03c01                   log                factor    3.089345E+02    2.000000E+01    2.000000E+03                     p    1.000000E+00    0.000000E+00          1
              kr03c02                   log                factor    1.330192E+02    2.000000E+01    2.000000E+03                     p    1.000000E+00    0.000000E+00          1
              kr03c03                   log                factor    1.385055E+02    2.000000E+01    2.000000E+03                     p    1.000000E+00    0.000000E+00          1
              kr03c04                   log                factor    1.249017E+02    2.000000E+01    2.000000E+03                     p    1.000000E+00    0.000000E+00          1
              kr03c05                   log                factor    3.726017E+01    2.000000E+01    2.000000E+03                     p    1.000000E+00    0.000000E+00          1
              kr03c06                   log                factor    2.454453E+02    2.000000E+01    2.000000E+03                     p    1.000000E+00    0.000000E+00          1
              kr03c07                   log                factor    5.173616E+02    2.000000E+01    2.000000E+03                     p    1.000000E+00    0.000000E+00          1
              kr03c08                   log                factor    8.667430E+02    2.000000E+01    2.000000E+03                     p    1.000000E+00    0.000000E+00          1
              kr03c09                   log                factor    5.814477E+01    2.000000E+01    2.000000E+03                     p    1.000000E+00    0.000000E+00          1
              kr03c10                   log                factor    3.147712E+01    2.000000E+01    2.000000E+03                     p    1.000000E+00    0.000000E+00          1
              kr03c11                   log                factor    2.828812E+02    2.000000E+01    2.000000E+03                     p    1.000000E+00    0.000000E+00          1
              kr03c12                   log                factor    2.252400E+03    2.000000E+01    2.000000E+03                     p    1.000000E+00    0.000000E+00          1
              kr03c13                   log                factor    2.135050E+02    2.000000E+01    2.000000E+03                     p    1.000000E+00    0.000000E+00          1
              kr03c14                   log                factor    4.158126E+02    2.000000E+01    2.000000E+03                     p    1.000000E+00    0.000000E+00          1
              kr03c15                   log                factor    3.408471E+01    2.000000E+01    2.000000E+03                     p    1.000000E+00    0.000000E+00          1
              kr03c16                   log                factor    1.883882E+02    2.000000E+01    2.000000E+03                     p    1.000000E+00    0.000000E+00          1
              kr03c17                   log                factor    1.199885E+02    2.000000E+01    2.000000E+03                     p    1.000000E+00    0.000000E+00          1
              kr03c18                   log                factor    8.937189E+01    2.000000E+01    2.000000E+03                     p    1.000000E+00    0.000000E+00          1
              kr03c19                   log                factor    5.353500E+02    2.000000E+01    2.000000E+03                     p    1.000000E+00    0.000000E+00          1
              kr03c20                   log                factor    2.255156E+03    2.000000E+01    2.000000E+03                     p    1.000000E+00    0.000000E+00          1
              kr03c21                   log                factor    1.035968E+02    2.000000E+01    2.000000E+03                     p    1.000000E+00    0.000000E+00          1
              kr03c22                   log                factor    5.521049E+01    2.000000E+01    2.000000E+03                     p    1.000000E+00    0.000000E+00          1
              kr03c23                   log                factor    2.264003E+02    2.000000E+01    2.000000E+03                     p    1.000000E+00    0.000000E+00          1
              kr03c24                   log                factor    3.054307E+02    2.000000E+01    2.000000E+03                     p    1.000000E+00    0.000000E+00          1
              kr03c25                   log                factor    1.286878E+02    2.000000E+01    2.000000E+03                     p    1.000000E+00    0.000000E+00          1
              kr03c26                   log                factor    1.454821E+02    2.000000E+01    2.000000E+03                     p    1.000000E+00    0.000000E+00          1
              kr03c27                   log                factor    4.526551E+01    2.000000E+01    2.000000E+03                     p    1.000000E+00    0.000000E+00          1
              kr03c28                   log                factor    5.016136E+02    2.000000E+01    2.000000E+03                     p    1.000000E+00    0.000000E+00          1
              kr03c29                   log                factor    1.380284E+02    2.000000E+01    2.000000E+03                     p    1.000000E+00    0.000000E+00          1
              kr03c30                   log                factor    1.895238E+02    2.000000E+01    2.000000E+03                     p    1.000000E+00    0.000000E+00          1
              kr03c31                   log                factor    5.173860E+02    2.000000E+01    2.000000E+03                     p    1.000000E+00    0.000000E+00          1
              kr03c32                   log                factor    3.289642E+02    2.000000E+01    2.000000E+03                     p    1.000000E+00    0.000000E+00          1
              kr03c33                   log                factor    1.500383E+03    2.000000E+01    2.000000E+03                     p    1.000000E+00    0.000000E+00          1
              kr03c34                   log                factor    1.437956E+02    2.000000E+01    2.000000E+03                     p    1.000000E+00    0.000000E+00          1
              kr03c35                   log                factor    3.344260E+01    2.000000E+01    2.000000E+03                     p    1.000000E+00    0.000000E+00          1
              kr03c36                   log                factor    1.194062E+03    2.000000E+01    2.000000E+03                     p    1.000000E+00    0.000000E+00          1
              kr03c37                   log                factor    4.327956E+02    2.000000E+01    2.000000E+03                     p    1.000000E+00    0.000000E+00          1
              kr03c38                   log                factor    8.379008E+02    2.000000E+01    2.000000E+03                     p    1.000000E+00    0.000000E+00          1
              kr03c39                   log                factor    2.141154E+02    2.000000E+01    2.000000E+03                     p    1.000000E+00    0.000000E+00          1