pcf
* control data
             restart          estimation
       601        75         2         0         3         0
         2         5              single               point         1         0         0            noobsref
   1.000000E+01   2.000000E+00   3.000000E-01   3.000000E-02        10       999          lamforgive        noderforgive
   3.000000E+00   3.000000E+00   1.000000E-03         0         0
   1.000000E-01         1   1.100000E+00               noaui          nosenreuse        noboundscale
        -1   5.000000E-03         4         4   1.000000E-03         4   0.000000E+00         1  -1.000000E+00
         1         1         1         0             jcosave          verboserec          jcosaveitn          reisaveitn          parsaveitn          parsaverun
* singular value decomposition
1
75  1.0e-7
1  0  0
* parameter groups
p  relative    1.000000E-02  0  switch    2.000000E+00             parabolic    1.000000E-05    5.000000E-01               smaller
m  relative    1.000000E-02  0  switch    2.000000E+00             parabolic    1.000000E-05    5.000000E-01               smaller
* parameter data
mult1                     log                factor    6.396482E-01    2.500000E-01    2.500000E+00                     m    1.000000E+00    0.000000E+00          1
kr01c01                   log                factor    5.007226E+02    2.000000E+01    2.000000E+03                     p    1.000000E+00    0.000000E+00          1
kr01c02                   log                factor    8.331512E+01    2.000000E+01    2.000000E+03                     p    1.000000E+00    0.000000E+00          1
kr01c03                   log                factor    3.170001E+02    2.000000E+01    2.000000E+03                     p    1.000000E+00    0.000000E+00          1
kr01c04                   log                factor    2.073414E+02    2.000000E+01    2.000000E+03                     p    1.000000E+00    0.000000E+00          1
kr01c05                   log                factor    3.242754E+02    2.000000E+01    2.000000E+03                     p    1.000000E+00    0.000000E+00          1
kr01c06                   log                factor    1.357226E+02    2.000000E+01    2.000000E+03                     p    1.000000E+00    0.000000E+00          1
kr01c07                   log                factor    4.062738E+02    2.000000E+01    2.000000E+03                     p    1.000000E+00    0.000000E+00          1
kr01c08                   log                factor    2.359414E+02    2.000000E+01    2.000000E+03                     p    1.000000E+00    0.000000E+00          1
kr01c09                   log                factor    7.365429E+01    2.000000E+01    2.000000E+03                     p    1.000000E+00    0.000000E+00          1
kr01c10                   log                factor    1.411948E+02    2.000000E+01    2.000000E+03                     p    1.000000E+00    0.000000E+00          1
kr01c11                   log                factor    3.110008E+02    2.000000E+01    2.000000E+03                     p    1.000000E+00    0.000000E+00          1
kr01c12                   log                factor    1.847038E+02    2.000000E+01    2.000000E+03                     p    1.000000E+00    0.000000E+00          1
kr01c13                   log                factor    1.077025E+02    2.000000E+01    2.000000E+03                     p    1.000000E+00    0.000000E+00          1
kr01c14                   log                factor    1.701737E+02    2.000000E+01    2.000000E+03                     p    1.000000E+00    0.000000E+00          1
kr01c15                   log                factor    2.914242E+01    2.000000E+01    2.000000E+03                     p    1.000000E+00    0.000000E+00          1
kr01c16                   log                factor    2.065140E+02    2.000000E+01    2.000000E+03                     p    1.000000E+00    0.000000E+00          1
kr01c17                   log                factor    2.041817E+02    2.000000E+01    2.000000E+03                     p    1.000000E+00    0.000000E+00          1
kr01c18                   log                factor    9.317404E+02    2.000000E+01    2.000000E+03                     p    1.000000E+00    0.000000E+00          1
kr01c19                   log                factor    6.816704E+01    2.000000E+01    2.000000E+03                     p    1.000000E+00    0.000000E+00          1
kr01c20                   log                factor    3.151753E+02    2.000000E+01    2.000000E+03                     p    1.000000E+00    0.000000E+00          1
kr01c21                   log                factor    1.607735E+02    2.000000E+01    2.000000E+03                     p    1.000000E+00    0.000000E+00          1
kr01c22                   log                factor    8.036616E+01    2.000000E+01    2.000000E+03                     p    1.000000E+00    0.000000E+00          1
kr01c23                   log                factor    9.294781E+02    2.000000E+01    2.000000E+03                     p    1.000000E+00    0.000000E+00          1
kr01c24                   log                factor    1.286058E+02    2.000000E+01    2.000000E+03                     p    1.000000E+00    0.000000E+00          1
kr01c25                   log                factor    8.905040E+02    2.000000E+01    2.000000E+03                     p    1.000000E+00    0.000000E+00          1
kr01c26                   log                factor    1.701266E+02    2.000000E+01    2.000000E+03                     p    1.000000E+00    0.000000E+00          1
kr01c27                   log                factor    5.386275E+01    2.000000E+01    2.000000E+03                     p    1.000000E+00    0.000000E+00          1
kr01c28                   log                factor    4.813333E+02    2.000000E+01    2.000000E+03                     p    1.000000E+00    0.000000E+00          1
kr01c29                   log                factor    4.976295E+02    2.000000E+01    2.000000E+03                     p    1.000000E+00    0.000000E+00          1
kr01c30                   log                factor    2.269368E+02    2.000000E+01    2.000000E+03                     p    1.000000E+00    0.000000E+00          1
kr01c31                   log                factor    1.155362E+03    2.000000E+01    2.000000E+03                     p    1.000000E+00    0.000000E+00          1
kr01c32                   log                factor    9.509349E+02    2.000000E+01    2.000000E+03                     p    1.000000E+00    0.000000E+00          1
kr01c33                   log                factor    1.358272E+02    2.000000E+01    2.000000E+03                     p    1.000000E+00    0.000000E+00          1
kr01c34                   log                factor    1.395810E+02    2.000000E+01    2.000000E+03                     p    1.000000E+00    0.000000E+00          1
kr01c35                   log                factor    7.107211E+01    2.000000E+01    2.000000E+03                     p    1.000000E+00    0.000000E+00          1
kr01c36                   log                factor    4.472500E+02    2.000000E+01    2.000000E+03                     p    1.000000E+00    0.000000E+00          1
kr01c37                   log                factor    1.734140E+02    2.000000E+01    2.000000E+03                     p    1.000000E+00    0.000000E+00          1
kr01c38                   log                factor    2.430906E+02    2.000000E+01    2.000000E+03                     p    1.000000E+00    0.000000E+00          1
kr01c39                   log                factor    2.529752E+01    2.000000E+01    2.000000E+03                     p    1.000000E+00    0.000000E+00          1
kr01c40                   log                factor    9.250461E+02    2.000000E+01    2.000000E+03                     p    1.000000E+00    0.000000E+00          1
kr01c41                   log                factor    8.428647E+02    2.000000E+01    2.000000E+03                     p    1.000000E+00    0.000000E+00          1
kr01c42                   log                factor    1.166422E+02    2.000000E+01    2.000000E+03                     p    1.000000E+00    0.000000E+00          1
kr01c43                   log                factor    1.064798E+02    2.000000E+01    2.000000E+03                     p    1.000000E+00    0.000000E+00          1
kr01c44                   log                factor    1.341079E+02    2.000000E+01    2.000000E+03                     p    1.000000E+00    0.000000E+00          1
kr01c45                   log                factor    4.576899E+02    2.000000E+01    2.000000E+03                     p    1.000000E+00    0.000000E+00          1
kr01c46                   log                factor    9.988975E+02    2.000000E+01    2.000000E+03                     p    1.000000E+00    0.000000E+00          1
kr01c47                   log                factor    1.971617E+02    2.000000E+01    2.000000E+03                     p    1.000000E+00    0.000000E+00          1
kr01c48                   log                factor    9.348913E+02    2.000000E+01    2.000000E+03                     p    1.000000E+00    0.000000E+00          1
kr01c49                   log                factor    9.818564E+01    2.000000E+01    2.000000E+03                     p    1.000000E+00    0.000000E+00          1
kr01c50                   log                factor    3.624517E+02    2.000000E+01    2.000000E+03                     p    1.000000E+00    0.000000E+00          1
kr01c51                   log                factor    1.041281E+03    2.000000E+01    2.000000E+03                     p    1.000000E+00    0.000000E+00          1
kr01c52                   log                factor    2.497610E+02    2.000000E+01    2.000000E+03                     p    1.000000E+00    0.000000E+00          1
kr01c53                   log                factor    3.655306E+02    2.000000E+01    2.000000E+03                     p    1.000000E+00    0.000000E+00          1
kr01c54                   log                factor    5.685850E+02    2.000000E+01    2.000000E+03                     p    1.000000E+00    0.000000E+00          1
kr01c55                   log                factor    1.726227E+02    2.000000E+01    2.000000E+03                     p    1.000000E+00    0.000000E+00          1
kr01c56                   log                factor    1.725143E+03    2.000000E+01    2.000000E+03                     p    1.000000E+00    0.000000E+00          1
kr01c57                   log                factor    8.863435E+02    2.000000E+01    2.000000E+03                     p    1.000000E+00    0.000000E+00          1
kr01c58                   log                factor    2.641946E+02    2.000000E+01    2.000000E+03                     p    1.000000E+00    0.000000E+00          1
kr01c59                   log                factor    1.178724E+01    2.000000E+01    2.000000E+03                     p    1.000000E+00    0.000000E+00          1
kr01c60                   log                factor    4.744780E+02    2.000000E+01    2.000000E+03                     p    1.000000E+00    0.000000E+00          1
kr02c01                   log                factor    4.119252E+02    2.000000E+01    2.000000E+03                     p    1.000000E+00    0.000000E+00          1
kr02c02                   log                factor    7.532981E+03    2.000000E+01    2.000000E+03                     p    1.000000E+00    0.000000E+00          1
kr02c03                   log                factor    1.806618E+02    2.000000E+01    2.000000E+03                     p    1.000000E+00    0.000000E+00          1
kr02c04                   log                factor    1.313760E+01    2.000000E+01    2.000000E+03                     p    1.000000E+00    0.000000E+00          1
kr02c05                   log                factor    1.389303E+03    2.000000E+01    2.000000E+03                     p    1.000000E+00    0.000000E+00          1
kr02c06                   log                factor    2.846560E+02    2.000000E+01    2.000000E+03                     p    1.000000E+00    0.000000E+00          1
kr02c07                   log                factor    4.822527E+01    2.000000E+01    2.000000E+03                     p    1.000000E+00    0.000000E+00          1
kr02c08                   log                factor    1.962789E+01    2.000000E+01    2.000000E+03                     p    1.000000E+00    0.000000E+00          1
kr02c09                   log                factor    8.440345E+02    2.000000E+01    2.000000E+03                     p    1.000000E+00    0.000000E+00          1
kr02c10                   log                factor    2.169454E+02    2.000000E+01    2.000000E+03                     p    1.000000E+00    0.000000E+00          1
kr02c11                   log                factor    1.319521E+03    2.000000E+01    2.000000E+03                     p    1.000000E+00    0.000000E+00          1
kr02c12                   log                factor    6.600851E+01    2.000000E+01    2.000000E+03                     p    1.000000E+00    0.000000E+00          1
kr02c13                   log                factor    6.807577E+01    2.000000E+01    2.000000E+03                     p    1.000000E+00    0.000000E+00          1
kr02c14                   log                factor    3.208529E+02    2.000000E+01    2.000000E+03                     p    1.000000E+00    0.000000E+00          1
kr02c15                   log                factor    5.708876E+01    2.000000E+01    2.000000E+03                     p    1.000000E+00    0.000000E+00          1
kr02c16                   log                factor    1.612729E+02    2.000000E+01    2.000000E+03                     p    1.000000E+00    0.000000E+00          1
kr02c17                   log                factor    2.487791E+02    2.000000E+01    2.000000E+03                     p    1.000000E+00    0.000000E+00          1
kr02c18                   log                factor    3.051188E+02    2.000000E+01    2.000000E+03                     p    1.000000E+00    0.000000E+00          1
kr02c19                   log                factor    8.999153E+02    2.000000E+01    2.000000E+03                     p    1.000000E+00    0.000000E+00          1
kr02c20                   log                factor    3.899392E+02    2.000000E+01    2.000000E+03                     p    1.000000E+00    0.000000E+00          1
kr02c21                   log                factor    4.155018E+02    2.000000E+01    2.000000E+03                     p    1.000000E+00    0.000000E+00          1
kr02c22                   log                factor    1.808192E+03    2.000000E+01    2.000000E+03                     p    1.000000E+00    0.000000E+00          1
kr02c23                   log                factor    8.649338E+01    2.000000E+01    2.000000E+03                     p    1.000000E+00    0.000000E+00          1
kr02c24                   log                factor    1.205001E+02    2.000000E+01    2.000000E+03                     p    1.000000E+00    0.000000E+00          1
kr02c25                   log                factor    3.846423E+01    2.000000E+01    2.000000E+03                     p    1.000000E+00    0.000000E+00          1
kr02c26                   log                factor    3.823564E+02    2.000000E+01    2.000000E+03                     p    1.000000E+00    0.000000E+00          1
kr02c27                   log                factor    3.338912E+01    2.000000E+01    2.000000E+03                     p    1.000000E+00    0.000000E+00          1
kr02c28                   log                factor    3.756657E+02    2.000000E+01    2.000000E+03                     p    1.000000E+00    0.000000E+00          1
kr02c29                   log                factor    1.861310E+02    2.000000E+01    2.000000E+03                     p    1.000000E+00    0.000000E+00          1
kr02c30                   log                factor    8.883271E+02    2.000000E+01    2.000000E+03                     p    1.000000E+00    0.000000E+00          1
kr02c31                   log                factor    4.839685E+01    2.000000E+01    2.000000E+03                     p    1.000000E+00    0.000000E+00          1
kr02c32                   log                factor    6.621622E+02    2.000000E+01    2.000000E+03                     p    1.000000E+00    0.000000E+00          1
kr02c33                   log                factor    3.371326E+02    2.000000E+01    2.000000E+03                     p    1.000000E+00    0.000000E+00          1
kr02c34                   log                factor    4.362163E+01    2.000000E+01    2.000000E+03                     p    1.000000E+00    0.000000E+00          1
kr02c35                   log                factor    1.291184E+02    2.000000E+01    2.000000E+03                     p    1.000000E+00    0.000000E+00          1
kr02c36                   log                factor    5.627425E+01    2.000000E+01    2.000000E+03                     p    1.000000E+00    0.000000E+00          1
kr02c37                   log                factor    1.788864E+02    2.000000E+01    2.000000E+03                     p    1.000000E+00    0.000000E+00          1
kr02c38                   log                factor    2.565860E+02    2.000000E+01    2.000000E+03                     p    1.000000E+00    0.000000E+00          1
kr02c39                   log                factor    1.264416E+02    2.000000E+01    2.000000E+03                     p    1.000000E+00    0.000000E+00          1
kr02c40                   log                factor    2.960124E+01    2.000000E+01    2.000000E+03                     p    1.000000E+00    0.000000E+00          1
kr02c41                   log                factor    4.290831E+01    2.000000E+01    2.000000E+03                     p    1.000000E+00    0.000000E+00          1
kr02c42                   log                factor    1.189791E+03    2.000000E+01    2.000000E+03                     p    1.000000E+00    0.000000E+00          1
kr02c43                   log                factor    3.693842E+01    2.000000E+01    2.000000E+03                     p    1.000000E+00    0.000000E+00          1
kr02c44                   log                factor    3.965633E+02    2.000000E+01    2.000000E+03                     p    1.000000E+00    0.000000E+00          1
kr02c45                   log                factor    4.689676E+01    2.000000E+01    2.000000E+03                     p    1.000000E+00    0.000000E+00          1
kr02c46                   log                factor    9.760211E+01    2.000000E+01    2.000000E+03                     p    1.000000E+00    0.000000E+00          1
kr02c47                   log                factor    4.731200E+01    2.000000E+01    2.000000E+03                     p    1.000000E+00    0.000000E+00          1
kr02c48                   log                factor    1.532121E+02    2.000000E+01    2.000000E+03                     p    1.000000E+00    0.000000E+00          1
kr02c49                   log                factor    2.535086E+02    2.000000E+01    2.000000E+03                     p    1.000000E+00    0.000000E+00          1
kr02c50                   log                factor    1.183023E+02    2.000000E+01    2.000000E+03                     p    1.000000E+00    0.000000E+00          1
kr02c51                   log                factor    4.156034E+02    2.000000E+01    2.000000E+03                     p    1.000000E+00    0.000000E+00          1
kr02c52                   log                factor    3.891510E+01    2.000000E+01    2.000000E+03                     p    1.000000E+00    0.000000E+00          1
kr02c53                   log                factor    4.172083E+02    2.000000E+01    2.000000E+03                     p    1.000000E+00    0.000000E+00          1
kr02c54                   log                factor    2.280444E+02    2.000000E+01    2.000000E+03                     p    1.000000E+00    0.000000E+00          1
kr02c55                   log                factor    8.105423E+01    2.000000E+01    2.000000E+03                     p    1.000000E+00    0.000000E+00          1
kr02c56                   log                factor    3.171163E+02    2.000000E+01    2.000000E+03                     p    1.000000E+00    0.000000E+00          1
kr02c57                   log                factor    2.709295E+02    2.000000E+01    2.000000E+03                     p    1.000000E+00    0.000000E+00          1
kr02c58                   log                factor    8.532602E+01    2.000000E+01    2.000000E+03                     p    1.000000E+00    0.000000E+00          1
kr02c59                   log                factor    6.126553E+02    2.000000E+01    2.000000E+03                     p    1.000000E+00    0.000000E+00          1
kr02c60                   log                factor    8.113618E+02    2.000000E+01    2.000000E+03                     p    1.000000E+00    0.000000E+00          1
kr03c01                   log                factor    8.410111E+01    2.000000E+01    2.000000E+03                     p    1.000000E+00    0.000000E+00          1
kr03c02                   log                factor    3.084086E+02    2.000000E+01    2.000000E+03                     p    1.000000E+00    0.000000E+00          1
kr03c03                   log                factor    8.940328E+01    2.000000E+01    2.000000E+03                     p    1.000000E+00    0.000000E+00          1
kr03c04                   log                factor    4.819051E+02    2.000000E+01    2.000000E+03                     p    1.000000E+00    0.000000E+00          1
kr03c05                   log                factor    1.308308E+02    2.000000E+01    2.000000E+03                     p    1.000000E+00    0.000000E+00          1
kr03c06                   log                factor    7.695711E+01    2.000000E+01    2.000000E+03                     p    1.000000E+00    0.000000E+00          1
kr03c07                   log                factor    9.595954E+01    2.000000E+01    2.000000E+03                     p    1.000000E+00    0.000000E+00          1
kr03c08                   log                factor    2.412807E+02    2.000000E+01    2.000000E+03                     p    1.000000E+00    0.000000E+00          1
kr03c09                   log                factor    1.436897E+02    2.000000E+01    2.000000E+03                     p    1.000000E+00    0.000000E+00          1
kr03c10                   log                factor    3.231560E+02    2.000000E+01    2.000000E+03                     p    1.000000E+00    0.000000E+00          1
kr03c11                   log                factor    1.289381E+02    2.000000E+01    2.000000E+03                     p    1.000000E+00    0.000000E+00          1
kr03c12                   log                factor    1.966922E+02    2.000000E+01    2.000000E+03                     p    1.000000E+00    0.000000E+00          1
kr03c13                   log                factor    2.537650E+01    2.000000E+01    2.000000E+03                     p    1.000000E+00    0.000000E+00          1
kr03c14                   log                factor    9.142288E+02    2.000000E+01    2.000000E+03                     p    1.000000E+00    0.000000E+00          1
kr03c15                   log                factor    3.058616E+02    2.000000E+01    2.000000E+03                     p    1.000000E+00    0.000000E+00          1
kr03c16                   log                factor    1.587071E+02    2.000000E+01    2.000000E+03                     p    1.000000E+00    0.000000E+00          1
kr03c17                   log                factor    1.527183E+02    2.000000E+01    2.000000E+03                     p    1.000000E+00    0.000000E+00          1
kr03c18                   log                factor    2.591789E+02    2.000000E+01    2.000000E+03                     p    1.000000E+00    0.000000E+00          1
kr03c19                   log                factor    9.610418E+01    2.000000E+01    2.000000E+03                     p    1.000000E+00    0.000000E+00          1
kr03c20                   log                factor    3.000285E+02    2.000000E+01    2.000000E+03                     p    1.000000E+00    0.000000E+00          1
kr03c21                   log                factor    8.308252E+01    2.000000E+01    2.000000E+03                     p    1.000000E+00    0.000000E+00          1
kr03c22                   log                factor    1.783055E+02    2.000000E+01    2.000000E+03                     p    1.000000E+00    0.000000E+00          1
kr03c23                   log                factor    1.476148E+02    2.000000E+01    2.000000E+03                     p    1.000000E+00    0.000000E+00          1
kr03c24                   log                factor    5.141610E+02    2.000000E+01    2.000000E+03                     p    1.000000E+00    0.000000E+00          1
kr03c25                   log                factor    1.493734E+01    2.000000E+01    2.000000E+03                     p    1.000000E+00    0.000000E+00          1
kr03c26                   log                factor    2.069459E+01    2.000000E+01    2.000000E+03                     p    1.000000E+00    0.000000E+00          1
kr03c27                   log                factor    5.291804E+02    2.000000E+01    2.000000E+03                     p    1.000000E+00    0.000000E+00          1
kr03c28                   log                factor    3.371043E+02    2.000000E+01    2.000000E+03                     p    1.000000E+00    0.000000E+00          1
kr03c29                   log                factor    6.324840E+02    2.000000E+01    2.000000E+03                     p    1.000000E+00    0.000000E+00          1
kr03c30                   log                factor    2.864931E+02    2.000000E+01    2.000000E+03                     p    1.000000E+00    0.000000E+00          1
kr03c31                   log                factor    2.227792E+02    2.000000E+01    2.000000E+03                     p    1.000000E+00    0.000000E+00          1
kr03c32                   log                factor    2.427315E+02    2.000000E+01    2.000000E+03                     p    1.000000E+00    0.000000E+00          1
kr03c33                   log                factor    6.221091E+02    2.000000E+01    2.000000E+03                     p    1.000000E+00    0.000000E+00          1
kr03c34                   log                factor    2.263481E+02    2.000000E+01    2.000000E+03                     p    1.000000E+00    0.000000E+00          1
kr03c35                   log                factor    7.358898E+02    2.000000E+01    2.000000E+03                     p    1.000000E+00    0.000000E+00          1
kr03c36                   log                factor    7.678767E+01    2.000000E+01    2.000000E+03                     p    1.000000E+00    0.000000E+00          1
kr03c37                   log                factor    2.246502E+02    2.000000E+01    2.000000E+03                     p    1.000000E+00    0.000000E+00          1
kr03c38                   log                factor    5.766548E+02    2.000000E+01    2.000000E+03                     p    1.000000E+00    0.000000E+00          1
kr03c39                   log                factor    1.813961E+02    2.000000E+01    2.000000E+03                     p    1.000000E+00    0.000000E+00          1
kr03c40                   log                factor    3.847994E+02    2.000000E+01    2.000000E+03                     p    1.000000E+00    0.000000E+00          1
kr03c41                   log                factor    5.822553E+01    2.000000E+01    2.000000E+03                     p    1.000000E+00    0.000000E+00          1
kr03c42                   log                factor    1.110376E+03    2.000000E+01    2.000000E+03                     p    1.000000E+00    0.000000E+00          1
kr03c43                   log                factor    4.416017E+02    2.000000E+01    2.000000E+03                     p    1.000000E+00    0.000000E+00          1
kr03c44                   log                factor    3.106997E+02    2.000000E+01    2.000000E+03                     p    1.000000E+00    0.000000E+00          1
kr03c45                   log                factor    2.760942E+02    2.000000E+01    2.000000E+03                     p    1.000000E+00    0.000000E+00          1
kr03c46                   log                factor    7.378317E+01    2.000000E+01    2.000000E+03                     p    1.000000E+00    0.000000E+00          1
kr03c47                   log                factor    5.783123E+02    2.000000E+01    2.000000E+03                     p    1.000000E+00    0.000000E+00          1
kr03c48                   log                factor    5.045756E+01    2.000000E+01    2.000000E+03                     p    1.000000E+00    0.000000E+00          1
kr03c49                   log                factor    5.819185E+02    2.000000E+01    2.000000E+03                     p    1.000000E+00    0.000000E+00          1
kr03c50                   log                factor    1.063638E+02    2.000000E+01    2.000000E+03                     p    1.000000E+00    0.000000E+00          1
kr03c51                   log                factor    5.220007E+01    2.000000E+01    2.000000E+03                     p    1.000000E+00    0.000000E+00          1
kr03c52                   log                factor    5.095493E+02    2.000000E+01    2.000000E+03                     p    1.000000E+00    0.000000E+00          1
kr03c53                   log                factor    3.816067E+02    2.000000E+01    2.000000E+03                     p    1.000000E+00    0.000000E+00          1