# Well file for MODFLOW, generated by Flopy.
         1         0
         1         0
        1         1        10  5.000000e-01
         1         0
        1         1        10  1.000000e+00
