# BAS6 package for  MODFLOW-NWT, generated by Flopy.
 FREE
OPEN/CLOSE            ./ibound_layer_1.ref               1    (20I10) -1 ibound_layer_0                
        -999.99
OPEN/CLOSE              ./strt_layer_1.ref               1  (20E15.6) -1 strt_layer_0                  
