# RCH package for  MODFLOW-NWT, generated by Flopy.
         3         0
         1        -1 # Stress period 1
OPEN/CLOSE                    ./rech_0.ref               1     (FREE) -1 rech_1                        
