# UPW package for  MODFLOW-NWT, generated by Flopy.
         0    -1E+30         0         0 
         0
         0
   1.000000E+00
         0
         0
OPEN/CLOSE                ./hk_Layer_1.ref               1     (FREE) -1 hk                            
OPEN/CLOSE                      ./vka1.ref               1     (FREE) -1 vka                           
