# WEL package for  MODFLOW-NWT, generated by Flopy.
         6         0
         6         0 # stress period 1
         open/close ./WEL_0000.dat
