# File generated by Flopy version 3.6.0.dev0 on 05/01/2024 at 14:30:23.
BEGIN options
  SAVE_FLOWS
  NEWTON  UNDER_RELAXATION
END options

BEGIN packages
  DIS6  model.dis  dis
  NPF6  model.npf  npf
  OC6  model.oc  oc
END packages

