# File generated by Flopy version 3.6.0.dev0 on 05/01/2024 at 14:30:23.
BEGIN options
  HEAD  FILEOUT  model.hds
  BUDGETCSV FILEOUT budget.csv
END options

BEGIN period  1
  SAVE  HEAD  ALL
  PRINT  BUDGET  ALL
END period  1

