# File generated by Flopy version 3.6.0.dev0 on 05/01/2024 at 14:30:23.
BEGIN options
  LENGTH_UNITS  meters
END options

BEGIN dimensions
  NLAY  1
  NROW  100
  NCOL  100
END dimensions

BEGIN griddata
  delr
    OPEN/CLOSE  'model.dis_delr.txt'  FACTOR  1.0
  delc
    OPEN/CLOSE  'model.dis_delc.txt'  FACTOR  1.0
  top
    OPEN/CLOSE  'model.dis_top.txt'  FACTOR  1.0
  botm
    OPEN/CLOSE  'model.dis_botm.txt'  FACTOR  1.0
  idomain
    OPEN/CLOSE  'model.dis_idomain.txt'  FACTOR  1
END griddata

