# File generated by Flopy version 3.6.0.dev0 on 05/01/2024 at 14:30:23.
BEGIN options
END options

BEGIN griddata
  icelltype
    OPEN/CLOSE  'model.npf_icelltype.txt'  FACTOR  1
  k
    OPEN/CLOSE  'model.npf_k.txt'  FACTOR  1.0
END griddata

