# File generated by Flopy version 3.6.0.dev0 on 05/01/2024 at 14:30:23.
BEGIN options
  COMPLEXITY  complex
  CSV_OUTPUT  FILEOUT  model.ims.csv
  NO_PTC  FIRST
END options

BEGIN nonlinear
  OUTER_DVCLOSE       0.000100000
  OUTER_MAXIMUM  100
END nonlinear

BEGIN linear
  INNER_MAXIMUM  100
  INNER_DVCLOSE       0.000100000
  inner_rclose       1.00000000  strict
  LINEAR_ACCELERATION  bicgstab
  REORDERING_METHOD  none
END linear

