# File generated by Flopy version 3.6.0.dev0 on 05/01/2024 at 14:30:23.
BEGIN options
  TIME_UNITS  days
  START_DATE_TIME  2025-01-01
END options

BEGIN dimensions
  NPER  3
END dimensions

BEGIN perioddata
       1.00000000  1       1.00000000
    3650.00000000  1       1.00000000
   36500.00000000  1       1.00000000
END perioddata

