pcf
* control data
             restart          estimation
       601        75         2         0         3         0
         2         5              single               point         1         0         0          noobsreref
   1.000000E+01   2.000000E+00   3.000000E-01   3.000000E-02        10       999          lamforgive        noderforgive
   3.000000E+00   3.000000E+00   1.000000E-03         0         0
   1.000000E-01         1   1.100000E+00               noaui          nosenreuse        noboundscale
        -1   5.000000E-03         4         4   1.000000E-03         4   0.000000E+00         1  -1.000000E+00
         1         1         1         0             jcosave          verboserec          jcosaveitn          reisaveitn          parsaveitn        noparsaverun
* singular value decomposition
         1
  10000000    1.000000E-06
1
* parameter groups
p                       relative              1.0000000000E-02       0.0  switch                2.0000000000E+00       parabolic             1.0000000000E-05      5.0000000000E-01       smaller              
m                       relative              1.0000000000E-02       0.0  switch                2.0000000000E+00       parabolic             1.0000000000E-05      5.0000000000E-01       smaller
* parameter data
mult1                  log                    factor                3.9171155834E-01      2.5000000000E-01      2.5000000000E+00       m                     1.0000000000E+00      0.0000000000E+00      1          
kr01c01                log                    factor                7.4328466077E+01      2.0000000000E+01      2.0000000000E+03       p                     1.0000000000E+00      0.0000000000E+00      1          
kr01c02                log                    factor                4.3084438674E+02      2.0000000000E+01      2.0000000000E+03       p                     1.0000000000E+00      0.0000000000E+00      1          
kr01c03                log                    factor                1.9991964226E+02      2.0000000000E+01      2.0000000000E+03       p                     1.0000000000E+00      0.0000000000E+00      1          
kr01c04                log                    factor                1.2695239509E+02      2.0000000000E+01      2.0000000000E+03       p                     1.0000000000E+00      0.0000000000E+00      1          
kr01c05                log                    factor                1.9721583395E+01      2.0000000000E+01      2.0000000000E+03       p                     1.0000000000E+00      0.0000000000E+00      1          
kr01c06                log                    factor                3.9814849863E+02      2.0000000000E+01      2.0000000000E+03       p                     1.0000000000E+00      0.0000000000E+00      1          
kr01c07                log                    factor                1.5122606835E+02      2.0000000000E+01      2.0000000000E+03       p                     1.0000000000E+00      0.0000000000E+00      1          
kr01c08                log                    factor                2.7675610001E+02      2.0000000000E+01      2.0000000000E+03       p                     1.0000000000E+00      0.0000000000E+00      1          
kr01c09                log                    factor                6.9869449779E+01      2.0000000000E+01      2.0000000000E+03       p                     1.0000000000E+00      0.0000000000E+00      1          
kr01c10                log                    factor                4.3102541493E+01      2.0000000000E+01      2.0000000000E+03       p                     1.0000000000E+00      0.0000000000E+00      1          
kr01c11                log                    factor                1.2908021890E+02      2.0000000000E+01      2.0000000000E+03       p                     1.0000000000E+00      0.0000000000E+00      1          
kr01c12                log                    factor                6.0073293512E+01      2.0000000000E+01      2.0000000000E+03       p                     1.0000000000E+00      0.0000000000E+00      1          
kr01c13                log                    factor                3.8010271713E+02      2.0000000000E+01      2.0000000000E+03       p                     1.0000000000E+00      0.0000000000E+00      1          
kr01c14                log                    factor                4.1257985175E+01      2.0000000000E+01      2.0000000000E+03       p                     1.0000000000E+00      0.0000000000E+00      1          
kr01c15                log                    factor                2.4458683369E+02      2.0000000000E+01      2.0000000000E+03       p                     1.0000000000E+00      0.0000000000E+00      1          
kr01c16                log                    factor                2.0177060762E+03      2.0000000000E+01      2.0000000000E+03       p                     1.0000000000E+00      0.0000000000E+00      1          
kr01c17                log                    factor                8.5141310833E+01      2.0000000000E+01      2.0000000000E+03       p                     1.0000000000E+00      0.0000000000E+00      1          
kr01c18                log                    factor                3.7391143437E+03      2.0000000000E+01      2.0000000000E+03       p                     1.0000000000E+00      0.0000000000E+00      1          
kr01c19                log                    factor                2.4360327476E+02      2.0000000000E+01      2.0000000000E+03       p                     1.0000000000E+00      0.0000000000E+00      1          
kr01c20                log                    factor                9.6893334516E+01      2.0000000000E+01      2.0000000000E+03       p                     1.0000000000E+00      0.0000000000E+00      1          
kr01c21                log                    factor                1.3003922977E+03      2.0000000000E+01      2.0000000000E+03       p                     1.0000000000E+00      0.0000000000E+00      1          
kr01c22                log                    factor                7.3185914063E+02      2.0000000000E+01      2.0000000000E+03       p                     1.0000000000E+00      0.0000000000E+00      1          
kr01c23                log                    factor                4.3288666970E+02      2.0000000000E+01      2.0000000000E+03       p                     1.0000000000E+00      0.0000000000E+00      1          
kr01c24                log                    factor                1.3694727928E+02      2.0000000000E+01      2.0000000000E+03       p                     1.0000000000E+00      0.0000000000E+00      1          
kr01c25                log                    factor                7.1485976354E+02      2.0000000000E+01      2.0000000000E+03       p                     1.0000000000E+00      0.0000000000E+00      1          
kr01c26                log                    factor                1.3492474556E+03      2.0000000000E+01      2.0000000000E+03       p                     1.0000000000E+00      0.0000000000E+00      1          
kr01c27                log                    factor                7.4409685989E+03      2.0000000000E+01      2.0000000000E+03       p                     1.0000000000E+00      0.0000000000E+00      1          
kr01c28                log                    factor                7.1858162513E+02      2.0000000000E+01      2.0000000000E+03       p                     1.0000000000E+00      0.0000000000E+00      1          
kr01c29                log                    factor                9.9476600251E+01      2.0000000000E+01      2.0000000000E+03       p                     1.0000000000E+00      0.0000000000E+00      1          
kr01c30                log                    factor                4.5258334181E+01      2.0000000000E+01      2.0000000000E+03       p                     1.0000000000E+00      0.0000000000E+00      1          
kr01c31                log                    factor                1.2055718721E+02      2.0000000000E+01      2.0000000000E+03       p                     1.0000000000E+00      0.0000000000E+00      1          
kr01c32                log                    factor                3.1911104632E+02      2.0000000000E+01      2.0000000000E+03       p                     1.0000000000E+00      0.0000000000E+00      1          
kr01c33                log                    factor                1.1383045085E+03      2.0000000000E+01      2.0000000000E+03       p                     1.0000000000E+00      0.0000000000E+00      1          
kr01c34                log                    factor                1.7912388809E+02      2.0000000000E+01      2.0000000000E+03       p                     1.0000000000E+00      0.0000000000E+00      1          
kr01c35                log                    factor                2.6626583956E+03      2.0000000000E+01      2.0000000000E+03       p                     1.0000000000E+00      0.0000000000E+00      1          
kr01c36                log                    factor                1.2442584909E+02      2.0000000000E+01      2.0000000000E+03       p                     1.0000000000E+00      0.0000000000E+00      1          
kr01c37                log                    factor                1.5764558331E+02      2.0000000000E+01      2.0000000000E+03       p                     1.0000000000E+00      0.0000000000E+00      1          
kr01c38                log                    factor                2.8588260141E+01      2.0000000000E+01      2.0000000000E+03       p                     1.0000000000E+00      0.0000000000E+00      1          
kr01c39                log                    factor                4.1187318410E+02      2.0000000000E+01      2.0000000000E+03       p                     1.0000000000E+00      0.0000000000E+00      1          
kr01c40                log                    factor                1.7994937401E+02      2.0000000000E+01      2.0000000000E+03       p                     1.0000000000E+00      0.0000000000E+00      1          
kr01c41                log                    factor                2.5727494677E+02      2.0000000000E+01      2.0000000000E+03       p                     1.0000000000E+00      0.0000000000E+00      1          
kr01c42                log                    factor                1.6016614878E+01      2.0000000000E+01      2.0000000000E+03       p                     1.0000000000E+00      0.0000000000E+00      1          
kr01c43                log                    factor                2.2909328712E+01      2.0000000000E+01      2.0000000000E+03       p                     1.0000000000E+00      0.0000000000E+00      1          
kr01c44                log                    factor                1.2417090356E+02      2.0000000000E+01      2.0000000000E+03       p                     1.0000000000E+00      0.0000000000E+00      1          
kr01c45                log                    factor                3.2272092195E+01      2.0000000000E+01      2.0000000000E+03       p                     1.0000000000E+00      0.0000000000E+00      1          
kr01c46                log                    factor                3.8428307685E+02      2.0000000000E+01      2.0000000000E+03       p                     1.0000000000E+00      0.0000000000E+00      1          
kr01c47                log                    factor                5.1014533142E+01      2.0000000000E+01      2.0000000000E+03       p                     1.0000000000E+00      0.0000000000E+00      1          
kr01c48                log                    factor                2.8508141778E+02      2.0000000000E+01      2.0000000000E+03       p                     1.0000000000E+00      0.0000000000E+00      1          
kr01c49                log                    factor                6.8255887012E+01      2.0000000000E+01      2.0000000000E+03       p                     1.0000000000E+00      0.0000000000E+00      1          
kr01c50                log                    factor                8.7094643290E+02      2.0000000000E+01      2.0000000000E+03       p                     1.0000000000E+00      0.0000000000E+00      1          
kr01c51                log                    factor                1.7202486761E+02      2.0000000000E+01      2.0000000000E+03       p                     1.0000000000E+00      0.0000000000E+00      1          
kr01c52                log                    factor                4.5975443306E+02      2.0000000000E+01      2.0000000000E+03       p                     1.0000000000E+00      0.0000000000E+00      1          
kr01c53                log                    factor                1.1296290444E+02      2.0000000000E+01      2.0000000000E+03       p                     1.0000000000E+00      0.0000000000E+00      1          
kr01c54                log                    factor                2.2158602492E+02      2.0000000000E+01      2.0000000000E+03       p                     1.0000000000E+00      0.0000000000E+00      1          
kr01c55                log                    factor                2.0065457795E+02      2.0000000000E+01      2.0000000000E+03       p                     1.0000000000E+00      0.0000000000E+00      1          
kr01c56                log                    factor                3.8026609004E+02      2.0000000000E+01      2.0000000000E+03       p                     1.0000000000E+00      0.0000000000E+00      1          
kr01c57                log                    factor                1.0348545579E+02      2.0000000000E+01      2.0000000000E+03       p                     1.0000000000E+00      0.0000000000E+00      1          
kr01c58                log                    factor                1.0046557183E+03      2.0000000000E+01      2.0000000000E+03       p                     1.0000000000E+00      0.0000000000E+00      1          
kr01c59                log                    factor                5.8866012044E+02      2.0000000000E+01      2.0000000000E+03       p                     1.0000000000E+00      0.0000000000E+00      1          
kr01c60                log                    factor                1.2519181859E+02      2.0000000000E+01      2.0000000000E+03       p                     1.0000000000E+00      0.0000000000E+00      1          
kr02c01                log                    factor                9.6425283445E+01      2.0000000000E+01      2.0000000000E+03       p                     1.0000000000E+00      0.0000000000E+00      1          
kr02c02                log                    factor                1.6847787896E+02      2.0000000000E+01      2.0000000000E+03       p                     1.0000000000E+00      0.0000000000E+00      1          
kr02c03                log                    factor                1.3090972507E+02      2.0000000000E+01      2.0000000000E+03       p                     1.0000000000E+00      0.0000000000E+00      1          
kr02c04                log                    factor                2.8495186809E+03      2.0000000000E+01      2.0000000000E+03       p                     1.0000000000E+00      0.0000000000E+00      1          
kr02c05                log                    factor                2.2082210031E+02      2.0000000000E+01      2.0000000000E+03       p                     1.0000000000E+00      0.0000000000E+00      1          
kr02c06                log                    factor                8.3978418446E+02      2.0000000000E+01      2.0000000000E+03       p                     1.0000000000E+00      0.0000000000E+00      1          
kr02c07                log                    factor                1.5910735188E+02      2.0000000000E+01      2.0000000000E+03       p                     1.0000000000E+00      0.0000000000E+00      1          
kr02c08                log                    factor                2.5250090456E+02      2.0000000000E+01      2.0000000000E+03       p                     1.0000000000E+00      0.0000000000E+00      1          
kr02c09                log                    factor                5.1321078888E+02      2.0000000000E+01      2.0000000000E+03       p                     1.0000000000E+00      0.0000000000E+00      1          
kr02c10                log                    factor                5.8127160602E+02      2.0000000000E+01      2.0000000000E+03       p                     1.0000000000E+00      0.0000000000E+00      1          
kr02c11                log                    factor                2.1375202277E+02      2.0000000000E+01      2.0000000000E+03       p                     1.0000000000E+00      0.0000000000E+00      1          
kr02c12                log                    factor                9.5345546836E+02      2.0000000000E+01      2.0000000000E+03       p                     1.0000000000E+00      0.0000000000E+00      1          
kr02c13                log                    factor                1.3183252467E+02      2.0000000000E+01      2.0000000000E+03       p                     1.0000000000E+00      0.0000000000E+00      1          
kr02c14                log                    factor                1.6712235878E+02      2.0000000000E+01      2.0000000000E+03       p                     1.0000000000E+00      0.0000000000E+00      1          
kr02c15                log                    factor                1.0650788809E+02      2.0000000000E+01      2.0000000000E+03       p                     1.0000000000E+00      0.0000000000E+00      1          
kr02c16                log                    factor                2.9575883650E+02      2.0000000000E+01      2.0000000000E+03       p                     1.0000000000E+00      0.0000000000E+00      1          
kr02c17                log                    factor                2.9917488667E+01      2.0000000000E+01      2.0000000000E+03       p                     1.0000000000E+00      0.0000000000E+00      1          
kr02c18                log                    factor                2.5221772993E+02      2.0000000000E+01      2.0000000000E+03       p                     1.0000000000E+00      0.0000000000E+00      1          
kr02c19                log                    factor                4.2287690447E+02      2.0000000000E+01      2.0000000000E+03       p                     1.0000000000E+00      0.0000000000E+00      1          
kr02c20                log                    factor                6.5055698410E+01      2.0000000000E+01      2.0000000000E+03       p                     1.0000000000E+00      0.0000000000E+00      1          
kr02c21                log                    factor                2.0901225363E+02      2.0000000000E+01      2.0000000000E+03       p                     1.0000000000E+00      0.0000000000E+00      1          
kr02c22                log                    factor                1.6242617309E+02      2.0000000000E+01      2.0000000000E+03       p                     1.0000000000E+00      0.0000000000E+00      1          
kr02c23                log                    factor                9.5479867470E+02      2.0000000000E+01      2.0000000000E+03       p                     1.0000000000E+00      0.0000000000E+00      1          
kr02c24                log                    factor                1.6025074704E+02      2.0000000000E+01      2.0000000000E+03       p                     1.0000000000E+00      0.0000000000E+00      1          
kr02c25                log                    factor                7.4387516061E+01      2.0000000000E+01      2.0000000000E+03       p                     1.0000000000E+00      0.0000000000E+00      1          
kr02c26                log                    factor                6.5741970520E+01      2.0000000000E+01      2.0000000000E+03       p                     1.0000000000E+00      0.0000000000E+00      1          
kr02c27                log                    factor                1.8631058394E+02      2.0000000000E+01      2.0000000000E+03       p                     1.0000000000E+00      0.0000000000E+00      1          
kr02c28                log                    factor                1.4152635326E+02      2.0000000000E+01      2.0000000000E+03       p                     1.0000000000E+00      0.0000000000E+00      1          
kr02c29                log                    factor                5.2690737637E+01      2.0000000000E+01      2.0000000000E+03       p                     1.0000000000E+00      0.0000000000E+00      1          
kr02c30                log                    factor                6.8512453855E+01      2.0000000000E+01      2.0000000000E+03       p                     1.0000000000E+00      0.0000000000E+00      1          
kr02c31                log                    factor                4.2528720071E+02      2.0000000000E+01      2.0000000000E+03       p                     1.0000000000E+00      0.0000000000E+00      1          
kr02c32                log                    factor                7.7514250520E+02      2.0000000000E+01      2.0000000000E+03       p                     1.0000000000E+00      0.0000000000E+00      1          
kr02c33                log                    factor                3.2892669240E+02      2.0000000000E+01      2.0000000000E+03       p                     1.0000000000E+00      0.0000000000E+00      1          
kr02c34                log                    factor                7.8375990774E+01      2.0000000000E+01      2.0000000000E+03       p                     1.0000000000E+00      0.0000000000E+00      1          
kr02c35                log                    factor                3.5062910933E+02      2.0000000000E+01      2.0000000000E+03       p                     1.0000000000E+00      0.0000000000E+00      1          
kr02c36                log                    factor                2.5601760444E+03      2.0000000000E+01      2.0000000000E+03       p                     1.0000000000E+00      0.0000000000E+00      1          
kr02c37                log                    factor                1.5194987080E+02      2.0000000000E+01      2.0000000000E+03       p                     1.0000000000E+00      0.0000000000E+00      1          
kr02c38                log                    factor                4.6908962717E+02      2.0000000000E+01      2.0000000000E+03       p                     1.0000000000E+00      0.0000000000E+00      1          
kr02c39                log                    factor                5.4131387470E+02      2.0000000000E+01      2.0000000000E+03       p                     1.0000000000E+00      0.0000000000E+00      1          
kr02c40                log                    factor                7.0388127073E+02      2.0000000000E+01      2.0000000000E+03       p                     1.0000000000E+00      0.0000000000E+00      1          
kr02c41                log                    factor                1.5744850138E+02      2.0000000000E+01      2.0000000000E+03       p                     1.0000000000E+00      0.0000000000E+00      1          
kr02c42                log                    factor                2.6256138366E+02      2.0000000000E+01      2.0000000000E+03       p                     1.0000000000E+00      0.0000000000E+00      1          
kr02c43                log                    factor                7.7605641742E+01      2.0000000000E+01      2.0000000000E+03       p                     1.0000000000E+00      0.0000000000E+00      1          
kr02c44                log                    factor                1.1687387978E+03      2.0000000000E+01      2.0000000000E+03       p                     1.0000000000E+00      0.0000000000E+00      1          
kr02c45                log                    factor                8.4005247622E+01      2.0000000000E+01      2.0000000000E+03       p                     1.0000000000E+00      0.0000000000E+00      1          
kr02c46                log                    factor                9.8742570736E+01      2.0000000000E+01      2.0000000000E+03       p                     1.0000000000E+00      0.0000000000E+00      1          
kr02c47                log                    factor                4.2382812273E+02      2.0000000000E+01      2.0000000000E+03       p                     1.0000000000E+00      0.0000000000E+00      1          
kr02c48                log                    factor                3.0179237599E+01      2.0000000000E+01      2.0000000000E+03       p                     1.0000000000E+00      0.0000000000E+00      1          
kr02c49                log                    factor                5.0878347196E+02      2.0000000000E+01      2.0000000000E+03       p                     1.0000000000E+00      0.0000000000E+00      1          
kr02c50                log                    factor                1.3475355130E+02      2.0000000000E+01      2.0000000000E+03       p                     1.0000000000E+00      0.0000000000E+00      1          
kr02c51                log                    factor                2.3443032754E+02      2.0000000000E+01      2.0000000000E+03       p                     1.0000000000E+00      0.0000000000E+00      1          
kr02c52                log                    factor                1.9712946843E+03      2.0000000000E+01      2.0000000000E+03       p                     1.0000000000E+00      0.0000000000E+00      1          
kr02c53                log                    factor                4.0746589193E+02      2.0000000000E+01      2.0000000000E+03       p                     1.0000000000E+00      0.0000000000E+00      1          
kr02c54                log                    factor                4.5119177087E+01      2.0000000000E+01      2.0000000000E+03       p                     1.0000000000E+00      0.0000000000E+00      1          
kr02c55                log                    factor                2.2502462875E+02      2.0000000000E+01      2.0000000000E+03       p                     1.0000000000E+00      0.0000000000E+00      1          
kr02c56                log                    factor                1.5541442103E+03      2.0000000000E+01      2.0000000000E+03       p                     1.0000000000E+00      0.0000000000E+00      1          
kr02c57                log                    factor                3.1038187036E+01      2.0000000000E+01      2.0000000000E+03       p                     1.0000000000E+00      0.0000000000E+00      1          
kr02c58                log                    factor                1.0888300985E+02      2.0000000000E+01      2.0000000000E+03       p                     1.0000000000E+00      0.0000000000E+00      1          
kr02c59                log                    factor                9.2156472966E+02      2.0000000000E+01      2.0000000000E+03       p                     1.0000000000E+00      0.0000000000E+00      1          
kr02c60                log                    factor                1.9533112077E+02      2.0000000000E+01      2.0000000000E+03       p                     1.0000000000E+00      0.0000000000E+00      1          
kr03c01                log                    factor                2.4184910624E+02      2.0000000000E+01      2.0000000000E+03       p                     1.0000000000E+00      0.0000000000E+00      1          
kr03c02                log                    factor                2.3774250956E+01      2.0000000000E+01      2.0000000000E+03       p                     1.0000000000E+00      0.0000000000E+00      1          
kr03c03                log                    factor                1.6114552224E+03      2.0000000000E+01      2.0000000000E+03       p                     1.0000000000E+00      0.0000000000E+00      1          
kr03c04                log                    factor                4.1262788214E+00      2.0000000000E+01      2.0000000000E+03       p                     1.0000000000E+00      0.0000000000E+00      1          
kr03c05                log                    factor                1.2415000688E+02      2.0000000000E+01      2.0000000000E+03       p                     1.0000000000E+00      0.0000000000E+00      1          
kr03c06                log                    factor                9.8612750901E+01      2.0000000000E+01      2.0000000000E+03       p                     1.0000000000E+00      0.0000000000E+00      1          
kr03c07                log                    factor                2.6255647462E+02      2.0000000000E+01      2.0000000000E+03       p                     1.0000000000E+00      0.0000000000E+00      1          
kr03c08                log                    factor                2.1371778372E+02      2.0000000000E+01      2.0000000000E+03       p                     1.0000000000E+00      0.0000000000E+00      1          
kr03c09                log                    factor                5.1755150909E+02      2.0000000000E+01      2.0000000000E+03       p                     1.0000000000E+00      0.0000000000E+00      1          
kr03c10                log                    factor                1.0064290447E+02      2.0000000000E+01      2.0000000000E+03       p                     1.0000000000E+00      0.0000000000E+00      1          
kr03c11                log                    factor                7.9245294595E+02      2.0000000000E+01      2.0000000000E+03       p                     1.0000000000E+00      0.0000000000E+00      1          
kr03c12                log                    factor                2.8604203159E+02      2.0000000000E+01      2.0000000000E+03       p                     1.0000000000E+00      0.0000000000E+00      1          
kr03c13                log                    factor                8.7258946798E+02      2.0000000000E+01      2.0000000000E+03       p                     1.0000000000E+00      0.0000000000E+00      1          