pcf
* control data
             restart          estimation
       601        75         2         0         3         0
         2         5              single               point         1         0         0          noobsreref
   1.000000E+01   2.000000E+00   3.000000E-01   3.000000E-02        10       999          lamforgive        noderforgive
   3.000000E+00   3.000000E+00   1.000000E-03         0         0
   1.000000E-01         1   1.100000E+00               noaui          nosenreuse        noboundscale
        -1   5.000000E-03         4         4   1.000000E-03         4   0.000000E+00         1  -1.000000E+00
         1         1         1         0             jcosave          verboserec          jcosaveitn          reisaveitn          parsaveitn        noparsaverun
* singular value decomposition
         1
  10000000    1.000000E-06
1
* parameter groups
p                       relative              1.0000000000E-02       0.0  switch                2.0000000000E+00       parabolic             1.0000000000E-05      5.0000000000E-01       smaller              
m                       relative              1.0000000000E-02       0.0  switch                2.0000000000E+00       parabolic             1.0000000000E-05      5.0000000000E-01       smaller
* parameter data
mult1                  log                    factor                6.3386181846E-01      2.5000000000E-01      2.5000000000E+00       m                     1.0000000000E+00      0.0000000000E+00      1          
kr01c01                log                    factor                1.9842881449E+02      2.0000000000E+01      2.0000000000E+03       p                     1.0000000000E+00      0.0000000000E+00      1          
kr01c02                log                    factor                4.2015459806E+02      2.0000000000E+01      2.0000000000E+03       p                     1.0000000000E+00      0.0000000000E+00      1          
kr01c03                log                    factor                4.7930408981E+02      2.0000000000E+01      2.0000000000E+03       p                     1.0000000000E+00      0.0000000000E+00      1          
kr01c04                log                    factor                2.0809046362E+02      2.0000000000E+01      2.0000000000E+03       p                     1.0000000000E+00      0.0000000000E+00      1          
kr01c05                log                    factor                5.6471228488E+02      2.0000000000E+01      2.0000000000E+03       p                     1.0000000000E+00      0.0000000000E+00      1          
kr01c06                log                    factor                4.6782273794E+02      2.0000000000E+01      2.0000000000E+03       p                     1.0000000000E+00      0.0000000000E+00      1          
kr01c07                log                    factor                2.3035538023E+03      2.0000000000E+01      2.0000000000E+03       p                     1.0000000000E+00      0.0000000000E+00      1          
kr01c08                log                    factor                1.1091603669E+02      2.0000000000E+01      2.0000000000E+03       p                     1.0000000000E+00      0.0000000000E+00      1          
kr01c09                log                    factor                9.3482366661E+01      2.0000000000E+01      2.0000000000E+03       p                     1.0000000000E+00      0.0000000000E+00      1          
kr01c10                log                    factor                4.3659041353E+01      2.0000000000E+01      2.0000000000E+03       p                     1.0000000000E+00      0.0000000000E+00      1          
kr01c11                log                    factor                1.5221805316E+02      2.0000000000E+01      2.0000000000E+03       p                     1.0000000000E+00      0.0000000000E+00      1          
kr01c12                log                    factor                1.3327540944E+02      2.0000000000E+01      2.0000000000E+03       p                     1.0000000000E+00      0.0000000000E+00      1          
kr01c13                log                    factor                8.6159789965E+01      2.0000000000E+01      2.0000000000E+03       p                     1.0000000000E+00      0.0000000000E+00      1          
kr01c14                log                    factor                7.1727480810E+02      2.0000000000E+01      2.0000000000E+03       p                     1.0000000000E+00      0.0000000000E+00      1          
kr01c15                log                    factor                1.1000784343E+03      2.0000000000E+01      2.0000000000E+03       p                     1.0000000000E+00      0.0000000000E+00      1          
kr01c16                log                    factor                1.7559264335E+01      2.0000000000E+01      2.0000000000E+03       p                     1.0000000000E+00      0.0000000000E+00      1          
kr01c17                log                    factor                1.5190601963E+02      2.0000000000E+01      2.0000000000E+03       p                     1.0000000000E+00      0.0000000000E+00      1          
kr01c18                log                    factor                3.8492207631E+02      2.0000000000E+01      2.0000000000E+03       p                     1.0000000000E+00      0.0000000000E+00      1          
kr01c19                log                    factor                1.7181559245E+02      2.0000000000E+01      2.0000000000E+03       p                     1.0000000000E+00      0.0000000000E+00      1          
kr01c20                log                    factor                5.1474524822E+02      2.0000000000E+01      2.0000000000E+03       p                     1.0000000000E+00      0.0000000000E+00      1          
kr01c21                log                    factor                5.1370622023E+01      2.0000000000E+01      2.0000000000E+03       p                     1.0000000000E+00      0.0000000000E+00      1          
kr01c22                log                    factor                1.1495428187E+02      2.0000000000E+01      2.0000000000E+03       p                     1.0000000000E+00      0.0000000000E+00      1          
kr01c23                log                    factor                6.1187913778E+01      2.0000000000E+01      2.0000000000E+03       p                     1.0000000000E+00      0.0000000000E+00      1          
kr01c24                log                    factor                3.0706400955E+02      2.0000000000E+01      2.0000000000E+03       p                     1.0000000000E+00      0.0000000000E+00      1          
kr01c25                log                    factor                6.1802491545E+02      2.0000000000E+01      2.0000000000E+03       p                     1.0000000000E+00      0.0000000000E+00      1          
kr01c26                log                    factor                1.0517710387E+02      2.0000000000E+01      2.0000000000E+03       p                     1.0000000000E+00      0.0000000000E+00      1          
kr01c27                log                    factor                1.8841501676E+02      2.0000000000E+01      2.0000000000E+03       p                     1.0000000000E+00      0.0000000000E+00      1          
kr01c28                log                    factor                2.4657043925E+01      2.0000000000E+01      2.0000000000E+03       p                     1.0000000000E+00      0.0000000000E+00      1          
kr01c29                log                    factor                2.0327473652E+02      2.0000000000E+01      2.0000000000E+03       p                     1.0000000000E+00      0.0000000000E+00      1          
kr01c30                log                    factor                4.4205270445E+01      2.0000000000E+01      2.0000000000E+03       p                     1.0000000000E+00      0.0000000000E+00      1          
kr01c31                log                    factor                9.9272707021E+01      2.0000000000E+01      2.0000000000E+03       p                     1.0000000000E+00      0.0000000000E+00      1          
kr01c32                log                    factor                3.0522118565E+01      2.0000000000E+01      2.0000000000E+03       p                     1.0000000000E+00      0.0000000000E+00      1          
kr01c33                log                    factor                1.0613429830E+02      2.0000000000E+01      2.0000000000E+03       p                     1.0000000000E+00      0.0000000000E+00      1          
kr01c34                log                    factor                2.8535361420E+02      2.0000000000E+01      2.0000000000E+03       p                     1.0000000000E+00      0.0000000000E+00      1          
kr01c35                log                    factor                6.7924214232E+01      2.0000000000E+01      2.0000000000E+03       p                     1.0000000000E+00      0.0000000000E+00      1          
kr01c36                log                    factor                4.2803937357E+02      2.0000000000E+01      2.0000000000E+03       p                     1.0000000000E+00      0.0000000000E+00      1          
kr01c37                log                    factor                9.1820914768E+00      2.0000000000E+01      2.0000000000E+03       p                     1.0000000000E+00      0.0000000000E+00      1          
kr01c38                log                    factor                2.7953485478E+02      2.0000000000E+01      2.0000000000E+03       p                     1.0000000000E+00      0.0000000000E+00      1          
kr01c39                log                    factor                9.5164949537E+01      2.0000000000E+01      2.0000000000E+03       p                     1.0000000000E+00      0.0000000000E+00      1          
kr01c40                log                    factor                4.2721844074E+01      2.0000000000E+01      2.0000000000E+03       p                     1.0000000000E+00      0.0000000000E+00      1          
kr01c41                log                    factor                1.8668524045E+02      2.0000000000E+01      2.0000000000E+03       p                     1.0000000000E+00      0.0000000000E+00      1          
kr01c42                log                    factor                1.3898975599E+03      2.0000000000E+01      2.0000000000E+03       p                     1.0000000000E+00      0.0000000000E+00      1          
kr01c43                log                    factor                3.5492365550E+02      2.0000000000E+01      2.0000000000E+03       p                     1.0000000000E+00      0.0000000000E+00      1          
kr01c44                log                    factor                4.5886601011E+02      2.0000000000E+01      2.0000000000E+03       p                     1.0000000000E+00      0.0000000000E+00      1          
kr01c45                log                    factor                6.2845505873E+01      2.0000000000E+01      2.0000000000E+03       p                     1.0000000000E+00      0.0000000000E+00      1          
kr01c46                log                    factor                1.2132648912E+02      2.0000000000E+01      2.0000000000E+03       p                     1.0000000000E+00      0.0000000000E+00      1          
kr01c47                log                    factor                2.6271736671E+03      2.0000000000E+01      2.0000000000E+03       p                     1.0000000000E+00      0.0000000000E+00      1          
kr01c48                log                    factor                3.4797383973E+03      2.0000000000E+01      2.0000000000E+03       p                     1.0000000000E+00      0.0000000000E+00      1          
kr01c49                log                    factor                9.0705962503E+02      2.0000000000E+01      2.0000000000E+03       p                     1.0000000000E+00      0.0000000000E+00      1          
kr01c50                log                    factor                9.8305945235E+00      2.0000000000E+01      2.0000000000E+03       p                     1.0000000000E+00      0.0000000000E+00      1          
kr01c51                log                    factor                2.1874872044E+02      2.0000000000E+01      2.0000000000E+03       p                     1.0000000000E+00      0.0000000000E+00      1          
kr01c52                log                    factor                9.7956555632E+02      2.0000000000E+01      2.0000000000E+03       p                     1.0000000000E+00      0.0000000000E+00      1          
kr01c53                log                    factor                1.6681273917E+02      2.0000000000E+01      2.0000000000E+03       p                     1.0000000000E+00      0.0000000000E+00      1          
kr01c54                log                    factor                2.7287036680E+02      2.0000000000E+01      2.0000000000E+03       p                     1.0000000000E+00      0.0000000000E+00      1          
kr01c55                log                    factor                1.2669658701E+02      2.0000000000E+01      2.0000000000E+03       p                     1.0000000000E+00      0.0000000000E+00      1          
kr01c56                log                    factor                4.8426103372E+02      2.0000000000E+01      2.0000000000E+03       p                     1.0000000000E+00      0.0000000000E+00      1          
kr01c57                log                    factor                1.2567740426E+02      2.0000000000E+01      2.0000000000E+03       p                     1.0000000000E+00      0.0000000000E+00      1          
kr01c58                log                    factor                1.0663889400E+02      2.0000000000E+01      2.0000000000E+03       p                     1.0000000000E+00      0.0000000000E+00      1          
kr01c59                log                    factor                1.5040662217E+03      2.0000000000E+01      2.0000000000E+03       p                     1.0000000000E+00      0.0000000000E+00      1          
kr01c60                log                    factor                6.5933644182E+01      2.0000000000E+01      2.0000000000E+03       p                     1.0000000000E+00      0.0000000000E+00      1          
kr02c01                log                    factor                8.0807755377E+01      2.0000000000E+01      2.0000000000E+03       p                     1.0000000000E+00      0.0000000000E+00      1          
kr02c02                log                    factor                1.0181324969E+03      2.0000000000E+01      2.0000000000E+03       p                     1.0000000000E+00      0.0000000000E+00      1          
kr02c03                log                    factor                1.1376492293E+03      2.0000000000E+01      2.0000000000E+03       p                     1.0000000000E+00      0.0000000000E+00      1          
kr02c04                log                    factor                6.1219249915E+01      2.0000000000E+01      2.0000000000E+03       p                     1.0000000000E+00      0.0000000000E+00      1          
kr02c05                log                    factor                5.5801393721E+02      2.0000000000E+01      2.0000000000E+03       p                     1.0000000000E+00      0.0000000000E+00      1          
kr02c06                log                    factor                2.3723097245E+02      2.0000000000E+01      2.0000000000E+03       p                     1.0000000000E+00      0.0000000000E+00      1          
kr02c07                log                    factor                3.8146002914E+02      2.0000000000E+01      2.0000000000E+03       p                     1.0000000000E+00      0.0000000000E+00      1          
kr02c08                log                    factor                1.5063465743E+02      2.0000000000E+01      2.0000000000E+03       p                     1.0000000000E+00      0.0000000000E+00      1          
kr02c09                log                    factor                1.7923259318E+01      2.0000000000E+01      2.0000000000E+03       p                     1.0000000000E+00      0.0000000000E+00      1          
kr02c10                log                    factor                4.0367907315E+02      2.0000000000E+01      2.0000000000E+03       p                     1.0000000000E+00      0.0000000000E+00      1          
kr02c11                log                    factor                2.0130073870E+01      2.0000000000E+01      2.0000000000E+03       p                     1.0000000000E+00      0.0000000000E+00      1          
kr02c12                log                    factor                2.7671058328E+02      2.0000000000E+01      2.0000000000E+03       p                     1.0000000000E+00      0.0000000000E+00      1          
kr02c13                log                    factor                1.8725277535E+02      2.0000000000E+01      2.0000000000E+03       p                     1.0000000000E+00      0.0000000000E+00      1          
kr02c14                log                    factor                7.0122830270E+01      2.0000000000E+01      2.0000000000E+03       p                     1.0000000000E+00      0.0000000000E+00      1          
kr02c15                log                    factor                2.5382496181E+03      2.0000000000E+01      2.0000000000E+03       p                     1.0000000000E+00      0.0000000000E+00      1          
kr02c16                log                    factor                4.2342871691E+01      2.0000000000E+01      2.0000000000E+03       p                     1.0000000000E+00      0.0000000000E+00      1          
kr02c17                log                    factor                9.7919507274E+01      2.0000000000E+01      2.0000000000E+03       p                     1.0000000000E+00      0.0000000000E+00      1          
kr02c18                log                    factor                9.1034751635E+01      2.0000000000E+01      2.0000000000E+03       p                     1.0000000000E+00      0.0000000000E+00      1          
kr02c19                log                    factor                2.0493613175E+01      2.0000000000E+01      2.0000000000E+03       p                     1.0000000000E+00      0.0000000000E+00      1          
kr02c20                log                    factor                3.4730572435E+01      2.0000000000E+01      2.0000000000E+03       p                     1.0000000000E+00      0.0000000000E+00      1          
kr02c21                log                    factor                1.2940481275E+01      2.0000000000E+01      2.0000000000E+03       p                     1.0000000000E+00      0.0000000000E+00      1          
kr02c22                log                    factor                2.0682143543E+02      2.0000000000E+01      2.0000000000E+03       p                     1.0000000000E+00      0.0000000000E+00      1          
kr02c23                log                    factor                2.6212567444E+02      2.0000000000E+01      2.0000000000E+03       p                     1.0000000000E+00      0.0000000000E+00      1          
kr02c24                log                    factor                3.7631083901E+03      2.0000000000E+01      2.0000000000E+03       p                     1.0000000000E+00      0.0000000000E+00      1          
kr02c25                log                    factor                7.1050003182E+02      2.0000000000E+01      2.0000000000E+03       p                     1.0000000000E+00      0.0000000000E+00      1          
kr02c26                log                    factor                1.2991867543E+03      2.0000000000E+01      2.0000000000E+03       p                     1.0000000000E+00      0.0000000000E+00      1          
kr02c27                log                    factor                5.5180775884E+02      2.0000000000E+01      2.0000000000E+03       p                     1.0000000000E+00      0.0000000000E+00      1          
kr02c28                log                    factor                8.0622230898E+01      2.0000000000E+01      2.0000000000E+03       p                     1.0000000000E+00      0.0000000000E+00      1          
kr02c29                log                    factor                2.1728309650E+03      2.0000000000E+01      2.0000000000E+03       p                     1.0000000000E+00      0.0000000000E+00      1          
kr02c30                log                    factor                3.5211661418E+02      2.0000000000E+01      2.0000000000E+03       p                     1.0000000000E+00      0.0000000000E+00      1          
kr02c31                log                    factor                6.8121329023E+01      2.0000000000E+01      2.0000000000E+03       p                     1.0000000000E+00      0.0000000000E+00      1          
kr02c32                log                    factor                1.1949937785E+02      2.0000000000E+01      2.0000000000E+03       p                     1.0000000000E+00      0.0000000000E+00      1          
kr02c33                log                    factor                3.7485233836E+01      2.0000000000E+01      2.0000000000E+03       p                     1.0000000000E+00      0.0000000000E+00      1          
kr02c34                log                    factor                1.3200245884E+02      2.0000000000E+01      2.0000000000E+03       p                     1.0000000000E+00      0.0000000000E+00      1          
kr02c35                log                    factor                1.5497804267E+03      2.0000000000E+01      2.0000000000E+03       p                     1.0000000000E+00      0.0000000000E+00      1          
kr02c36                log                    factor                1.0396317065E+02      2.0000000000E+01      2.0000000000E+03       p                     1.0000000000E+00      0.0000000000E+00      1          
kr02c37                log                    factor                1.7907200700E+02      2.0000000000E+01      2.0000000000E+03       p                     1.0000000000E+00      0.0000000000E+00      1          
kr02c38                log                    factor                8.4692168959E+01      2.0000000000E+01      2.0000000000E+03       p                     1.0000000000E+00      0.0000000000E+00      1          
kr02c39                log                    factor                9.0720611381E+02      2.0000000000E+01      2.0000000000E+03       p                     1.0000000000E+00      0.0000000000E+00      1          
kr02c40                log                    factor                3.6247392215E+02      2.0000000000E+01      2.0000000000E+03       p                     1.0000000000E+00      0.0000000000E+00      1          
kr02c41                log                    factor                5.2834410140E+02      2.0000000000E+01      2.0000000000E+03       p                     1.0000000000E+00      0.0000000000E+00      1          
kr02c42                log                    factor                1.0791914255E+03      2.0000000000E+01      2.0000000000E+03       p                     1.0000000000E+00      0.0000000000E+00      1          
kr02c43                log                    factor                9.4680049876E+02      2.0000000000E+01      2.0000000000E+03       p                     1.0000000000E+00      0.0000000000E+00      1          
kr02c44                log                    factor                6.7230631237E+02      2.0000000000E+01      2.0000000000E+03       p                     1.0000000000E+00      0.0000000000E+00      1          
kr02c45                log                    factor                6.7918188651E+02      2.0000000000E+01      2.0000000000E+03       p                     1.0000000000E+00      0.0000000000E+00      1          
kr02c46                log                    factor                7.2164679137E+02      2.0000000000E+01      2.0000000000E+03       p                     1.0000000000E+00      0.0000000000E+00      1          
kr02c47                log                    factor                1.1313104828E+02      2.0000000000E+01      2.0000000000E+03       p                     1.0000000000E+00      0.0000000000E+00      1          
kr02c48                log                    factor                3.8265912996E+02      2.0000000000E+01      2.0000000000E+03       p                     1.0000000000E+00      0.0000000000E+00      1          
kr02c49                log                    factor                3.0583064228E+02      2.0000000000E+01      2.0000000000E+03       p                     1.0000000000E+00      0.0000000000E+00      1          
kr02c50                log                    factor                9.7718001382E+01      2.0000000000E+01      2.0000000000E+03       p                     1.0000000000E+00      0.0000000000E+00      1          
kr02c51                log                    factor                3.2635167371E+02      2.0000000000E+01      2.0000000000E+03       p                     1.0000000000E+00      0.0000000000E+00      1          
kr02c52                log                    factor                1.8231608103E+01      2.0000000000E+01      2.0000000000E+03       p                     1.0000000000E+00      0.0000000000E+00      1          
kr02c53                log                    factor                6.5010687917E+01      2.0000000000E+01      2.0000000000E+03       p                     1.0000000000E+00      0.0000000000E+00      1          
kr02c54                log                    factor                2.5270528098E+02      2.0000000000E+01      2.0000000000E+03       p                     1.0000000000E+00      0.0000000000E+00      1          
kr02c55                log                    factor                9.8952844151E+02      2.0000000000E+01      2.0000000000E+03       p                     1.0000000000E+00      0.0000000000E+00      1          
kr02c56                log                    factor                2.9880874064E+02      2.0000000000E+01      2.0000000000E+03       p                     1.0000000000E+00      0.0000000000E+00      1          
kr02c57                log                    factor                3.4286432426E+02      2.0000000000E+01      2.0000000000E+03       p                     1.0000000000E+00      0.0000000000E+00      1          
kr02c58                log                    factor                8.4371027633E+02      2.0000000000E+01      2.0000000000E+03       p                     1.0000000000E+00      0.0000000000E+00      1          
kr02c59                log                    factor                6.6846811236E+01      2.0000000000E+01      2.0000000000E+03       p                     1.0000000000E+00      0.0000000000E+00      1          
kr02c60                log                    factor                1.1980354212E+02      2.0000000000E+01      2.0000000000E+03       p                     1.0000000000E+00      0.0000000000E+00      1          
kr03c01                log                    factor                1.5919648301E+02      2.0000000000E+01      2.0000000000E+03       p                     1.0000000000E+00      0.0000000000E+00      1          
kr03c02                log                    factor                2.1978035498E+02      2.0000000000E+01      2.0000000000E+03       p                     1.0000000000E+00      0.0000000000E+00      1          
kr03c03                log                    factor                8.8022288476E+02      2.0000000000E+01      2.0000000000E+03       p                     1.0000000000E+00      0.0000000000E+00      1          
kr03c04                log                    factor                3.9596435471E+03      2.0000000000E+01      2.0000000000E+03       p                     1.0000000000E+00      0.0000000000E+00      1          
kr03c05                log                    factor                2.0569676896E+02      2.0000000000E+01      2.0000000000E+03       p                     1.0000000000E+00      0.0000000000E+00      1          
kr03c06                log                    factor                7.5837641454E+02      2.0000000000E+01      2.0000000000E+03       p                     1.0000000000E+00      0.0000000000E+00      1          
kr03c07                log                    factor                1.4344753550E+02      2.0000000000E+01      2.0000000000E+03       p                     1.0000000000E+00      0.0000000000E+00      1          
kr03c08                log                    factor                3.0812698931E+01      2.0000000000E+01      2.0000000000E+03       p                     1.0000000000E+00      0.0000000000E+00      1          
kr03c09                log                    factor                1.1298180920E+03      2.0000000000E+01      2.0000000000E+03       p                     1.0000000000E+00      0.0000000000E+00      1          
kr03c10                log                    factor                7.0582186496E+01      2.0000000000E+01      2.0000000000E+03       p                     1.0000000000E+00      0.0000000000E+00      1          
kr03c11                log                    factor                1.3907909353E+03      2.0000000000E+01      2.0000000000E+03       p                     1.0000000000E+00      0.0000000000E+00      1          
kr03c12                log                    factor                5.0942891004E+02      2.0000000000E+01      2.0000000000E+03       p                     1.0000000000E+00      0.0000000000E+00      1          
kr03c13                log                    factor                2.5135697510E+02      2.0000000000E+01      2.0000000000E+03       p                     1.0000000000E+00      0.0000000000E+00      1          