pcf
* control data
             restart          estimation
       601        75         2         0         3         0
         2         5              single               point         1         0         0          noobsreref
   1.000000E+01   2.000000E+00   3.000000E-01   3.000000E-02        10       999          lamforgive        noderforgive
   3.000000E+00   3.000000E+00   1.000000E-03         0         0
   1.000000E-01         1   1.100000E+00               noaui          nosenreuse        noboundscale
        -1   5.000000E-03         4         4   1.000000E-03         4   0.000000E+00         1  -1.000000E+00
         1         1         1         0             jcosave          verboserec          jcosaveitn          reisaveitn          parsaveitn        noparsaverun
* singular value decomposition
         1
  10000000    1.000000E-06
1
* parameter groups
p                       relative              1.0000000000E-02       0.0  switch                2.0000000000E+00       parabolic             1.0000000000E-05      5.0000000000E-01       smaller              
m                       relative              1.0000000000E-02       0.0  switch                2.0000000000E+00       parabolic             1.0000000000E-05      5.0000000000E-01       smaller
* parameter data
mult1                  log                    factor                1.8826737109E+00      2.5000000000E-01      2.5000000000E+00       m                     1.0000000000E+00      0.0000000000E+00      1          
kr01c01                log                    factor                3.6401932105E+02      2.0000000000E+01      2.0000000000E+03       p                     1.0000000000E+00      0.0000000000E+00      1          
kr01c02                log                    factor                1.1242383351E+02      2.0000000000E+01      2.0000000000E+03       p                     1.0000000000E+00      0.0000000000E+00      1          
kr01c03                log                    factor                3.0240297806E+02      2.0000000000E+01      2.0000000000E+03       p                     1.0000000000E+00      0.0000000000E+00      1          
kr01c04                log                    factor                6.0540180484E+01      2.0000000000E+01      2.0000000000E+03       p                     1.0000000000E+00      0.0000000000E+00      1          
kr01c05                log                    factor                4.1705003917E+01      2.0000000000E+01      2.0000000000E+03       p                     1.0000000000E+00      0.0000000000E+00      1          
kr01c06                log                    factor                6.8143019557E+01      2.0000000000E+01      2.0000000000E+03       p                     1.0000000000E+00      0.0000000000E+00      1          
kr01c07                log                    factor                2.8873526108E+02      2.0000000000E+01      2.0000000000E+03       p                     1.0000000000E+00      0.0000000000E+00      1          
kr01c08                log                    factor                1.3160540263E+02      2.0000000000E+01      2.0000000000E+03       p                     1.0000000000E+00      0.0000000000E+00      1          
kr01c09                log                    factor                4.0680079837E+02      2.0000000000E+01      2.0000000000E+03       p                     1.0000000000E+00      0.0000000000E+00      1          
kr01c10                log                    factor                6.9330913354E+02      2.0000000000E+01      2.0000000000E+03       p                     1.0000000000E+00      0.0000000000E+00      1          
kr01c11                log                    factor                1.0016902607E+02      2.0000000000E+01      2.0000000000E+03       p                     1.0000000000E+00      0.0000000000E+00      1          
kr01c12                log                    factor                4.6314388745E+01      2.0000000000E+01      2.0000000000E+03       p                     1.0000000000E+00      0.0000000000E+00      1          
kr01c13                log                    factor                9.0618128729E+01      2.0000000000E+01      2.0000000000E+03       p                     1.0000000000E+00      0.0000000000E+00      1          
kr01c14                log                    factor                2.5985367531E+02      2.0000000000E+01      2.0000000000E+03       p                     1.0000000000E+00      0.0000000000E+00      1          
kr01c15                log                    factor                7.2816245242E+01      2.0000000000E+01      2.0000000000E+03       p                     1.0000000000E+00      0.0000000000E+00      1          
kr01c16                log                    factor                1.8914632787E+01      2.0000000000E+01      2.0000000000E+03       p                     1.0000000000E+00      0.0000000000E+00      1          
kr01c17                log                    factor                1.5911778535E+03      2.0000000000E+01      2.0000000000E+03       p                     1.0000000000E+00      0.0000000000E+00      1          
kr01c18                log                    factor                7.9367333694E+02      2.0000000000E+01      2.0000000000E+03       p                     1.0000000000E+00      0.0000000000E+00      1          
kr01c19                log                    factor                2.1420444866E+02      2.0000000000E+01      2.0000000000E+03       p                     1.0000000000E+00      0.0000000000E+00      1          
kr01c20                log                    factor                3.0947470231E+02      2.0000000000E+01      2.0000000000E+03       p                     1.0000000000E+00      0.0000000000E+00      1          
kr01c21                log                    factor                3.6233696194E+03      2.0000000000E+01      2.0000000000E+03       p                     1.0000000000E+00      0.0000000000E+00      1          
kr01c22                log                    factor                6.0671504499E+01      2.0000000000E+01      2.0000000000E+03       p                     1.0000000000E+00      0.0000000000E+00      1          
kr01c23                log                    factor                1.9057965724E+01      2.0000000000E+01      2.0000000000E+03       p                     1.0000000000E+00      0.0000000000E+00      1          
kr01c24                log                    factor                1.3838983988E+02      2.0000000000E+01      2.0000000000E+03       p                     1.0000000000E+00      0.0000000000E+00      1          
kr01c25                log                    factor                2.4219601134E+02      2.0000000000E+01      2.0000000000E+03       p                     1.0000000000E+00      0.0000000000E+00      1          
kr01c26                log                    factor                9.7222824654E+02      2.0000000000E+01      2.0000000000E+03       p                     1.0000000000E+00      0.0000000000E+00      1          
kr01c27                log                    factor                4.3473135580E+02      2.0000000000E+01      2.0000000000E+03       p                     1.0000000000E+00      0.0000000000E+00      1          
kr01c28                log                    factor                1.0006824556E+02      2.0000000000E+01      2.0000000000E+03       p                     1.0000000000E+00      0.0000000000E+00      1          
kr01c29                log                    factor                2.7485141155E+02      2.0000000000E+01      2.0000000000E+03       p                     1.0000000000E+00      0.0000000000E+00      1          
kr01c30                log                    factor                6.1524398526E+01      2.0000000000E+01      2.0000000000E+03       p                     1.0000000000E+00      0.0000000000E+00      1          
kr01c31                log                    factor                4.3796884801E+01      2.0000000000E+01      2.0000000000E+03       p                     1.0000000000E+00      0.0000000000E+00      1          
kr01c32                log                    factor                1.1052772844E+02      2.0000000000E+01      2.0000000000E+03       p                     1.0000000000E+00      0.0000000000E+00      1          
kr01c33                log                    factor                1.7007899678E+02      2.0000000000E+01      2.0000000000E+03       p                     1.0000000000E+00      0.0000000000E+00      1          
kr01c34                log                    factor                1.9184841200E+02      2.0000000000E+01      2.0000000000E+03       p                     1.0000000000E+00      0.0000000000E+00      1          
kr01c35                log                    factor                5.2025366894E+02      2.0000000000E+01      2.0000000000E+03       p                     1.0000000000E+00      0.0000000000E+00      1          
kr01c36                log                    factor                7.7686872718E+01      2.0000000000E+01      2.0000000000E+03       p                     1.0000000000E+00      0.0000000000E+00      1          
kr01c37                log                    factor                5.7218695322E+02      2.0000000000E+01      2.0000000000E+03       p                     1.0000000000E+00      0.0000000000E+00      1          
kr01c38                log                    factor                7.5939950296E+02      2.0000000000E+01      2.0000000000E+03       p                     1.0000000000E+00      0.0000000000E+00      1          
kr01c39                log                    factor                7.2525758535E+01      2.0000000000E+01      2.0000000000E+03       p                     1.0000000000E+00      0.0000000000E+00      1          
kr01c40                log                    factor                2.1595813039E+03      2.0000000000E+01      2.0000000000E+03       p                     1.0000000000E+00      0.0000000000E+00      1          
kr01c41                log                    factor                2.9902718332E+02      2.0000000000E+01      2.0000000000E+03       p                     1.0000000000E+00      0.0000000000E+00      1          
kr01c42                log                    factor                8.3530787991E+01      2.0000000000E+01      2.0000000000E+03       p                     1.0000000000E+00      0.0000000000E+00      1          
kr01c43                log                    factor                4.1717955414E+02      2.0000000000E+01      2.0000000000E+03       p                     1.0000000000E+00      0.0000000000E+00      1          
kr01c44                log                    factor                2.3232605197E+02      2.0000000000E+01      2.0000000000E+03       p                     1.0000000000E+00      0.0000000000E+00      1          
kr01c45                log                    factor                3.0243941612E+01      2.0000000000E+01      2.0000000000E+03       p                     1.0000000000E+00      0.0000000000E+00      1          
kr01c46                log                    factor                8.0320204739E+01      2.0000000000E+01      2.0000000000E+03       p                     1.0000000000E+00      0.0000000000E+00      1          
kr01c47                log                    factor                1.5040992642E+02      2.0000000000E+01      2.0000000000E+03       p                     1.0000000000E+00      0.0000000000E+00      1          
kr01c48                log                    factor                2.9510225893E+01      2.0000000000E+01      2.0000000000E+03       p                     1.0000000000E+00      0.0000000000E+00      1          
kr01c49                log                    factor                9.3527577017E+02      2.0000000000E+01      2.0000000000E+03       p                     1.0000000000E+00      0.0000000000E+00      1          
kr01c50                log                    factor                1.4439308607E+02      2.0000000000E+01      2.0000000000E+03       p                     1.0000000000E+00      0.0000000000E+00      1          
kr01c51                log                    factor                4.5691376100E+02      2.0000000000E+01      2.0000000000E+03       p                     1.0000000000E+00      0.0000000000E+00      1          
kr01c52                log                    factor                6.3549104442E+01      2.0000000000E+01      2.0000000000E+03       p                     1.0000000000E+00      0.0000000000E+00      1          
kr01c53                log                    factor                2.4125905745E+02      2.0000000000E+01      2.0000000000E+03       p                     1.0000000000E+00      0.0000000000E+00      1          
kr01c54                log                    factor                4.2072770983E+01      2.0000000000E+01      2.0000000000E+03       p                     1.0000000000E+00      0.0000000000E+00      1          
kr01c55                log                    factor                5.8603784503E+01      2.0000000000E+01      2.0000000000E+03       p                     1.0000000000E+00      0.0000000000E+00      1          
kr01c56                log                    factor                4.8377248213E+02      2.0000000000E+01      2.0000000000E+03       p                     1.0000000000E+00      0.0000000000E+00      1          
kr01c57                log                    factor                2.5163895330E+01      2.0000000000E+01      2.0000000000E+03       p                     1.0000000000E+00      0.0000000000E+00      1          
kr01c58                log                    factor                3.2099961997E+01      2.0000000000E+01      2.0000000000E+03       p                     1.0000000000E+00      0.0000000000E+00      1          
kr01c59                log                    factor                1.2958811343E+03      2.0000000000E+01      2.0000000000E+03       p                     1.0000000000E+00      0.0000000000E+00      1          
kr01c60                log                    factor                1.2094168387E+02      2.0000000000E+01      2.0000000000E+03       p                     1.0000000000E+00      0.0000000000E+00      1          
kr02c01                log                    factor                2.9636368614E+01      2.0000000000E+01      2.0000000000E+03       p                     1.0000000000E+00      0.0000000000E+00      1          
kr02c02                log                    factor                1.0794599414E+02      2.0000000000E+01      2.0000000000E+03       p                     1.0000000000E+00      0.0000000000E+00      1          
kr02c03                log                    factor                1.8883320737E+01      2.0000000000E+01      2.0000000000E+03       p                     1.0000000000E+00      0.0000000000E+00      1          
kr02c04                log                    factor                4.8936262030E+02      2.0000000000E+01      2.0000000000E+03       p                     1.0000000000E+00      0.0000000000E+00      1          
kr02c05                log                    factor                2.6500013151E+02      2.0000000000E+01      2.0000000000E+03       p                     1.0000000000E+00      0.0000000000E+00      1          
kr02c06                log                    factor                1.6646061945E+03      2.0000000000E+01      2.0000000000E+03       p                     1.0000000000E+00      0.0000000000E+00      1          
kr02c07                log                    factor                9.0585291326E+00      2.0000000000E+01      2.0000000000E+03       p                     1.0000000000E+00      0.0000000000E+00      1          
kr02c08                log                    factor                2.3843293858E+02      2.0000000000E+01      2.0000000000E+03       p                     1.0000000000E+00      0.0000000000E+00      1          
kr02c09                log                    factor                3.3927861228E+02      2.0000000000E+01      2.0000000000E+03       p                     1.0000000000E+00      0.0000000000E+00      1          
kr02c10                log                    factor                8.5536365577E+01      2.0000000000E+01      2.0000000000E+03       p                     1.0000000000E+00      0.0000000000E+00      1          
kr02c11                log                    factor                2.9095687171E+02      2.0000000000E+01      2.0000000000E+03       p                     1.0000000000E+00      0.0000000000E+00      1          
kr02c12                log                    factor                4.9218207920E+01      2.0000000000E+01      2.0000000000E+03       p                     1.0000000000E+00      0.0000000000E+00      1          
kr02c13                log                    factor                3.8436351428E+01      2.0000000000E+01      2.0000000000E+03       p                     1.0000000000E+00      0.0000000000E+00      1          
kr02c14                log                    factor                1.3032079426E+03      2.0000000000E+01      2.0000000000E+03       p                     1.0000000000E+00      0.0000000000E+00      1          
kr02c15                log                    factor                4.4647367582E+02      2.0000000000E+01      2.0000000000E+03       p                     1.0000000000E+00      0.0000000000E+00      1          
kr02c16                log                    factor                3.9747455422E+01      2.0000000000E+01      2.0000000000E+03       p                     1.0000000000E+00      0.0000000000E+00      1          
kr02c17                log                    factor                1.1523829553E+02      2.0000000000E+01      2.0000000000E+03       p                     1.0000000000E+00      0.0000000000E+00      1          
kr02c18                log                    factor                1.0019784036E+02      2.0000000000E+01      2.0000000000E+03       p                     1.0000000000E+00      0.0000000000E+00      1          
kr02c19                log                    factor                3.1959732549E+01      2.0000000000E+01      2.0000000000E+03       p                     1.0000000000E+00      0.0000000000E+00      1          
kr02c20                log                    factor                3.6109201966E+02      2.0000000000E+01      2.0000000000E+03       p                     1.0000000000E+00      0.0000000000E+00      1          
kr02c21                log                    factor                1.4654891916E+02      2.0000000000E+01      2.0000000000E+03       p                     1.0000000000E+00      0.0000000000E+00      1          
kr02c22                log                    factor                1.2131311408E+01      2.0000000000E+01      2.0000000000E+03       p                     1.0000000000E+00      0.0000000000E+00      1          
kr02c23                log                    factor                9.4394210809E+01      2.0000000000E+01      2.0000000000E+03       p                     1.0000000000E+00      0.0000000000E+00      1          
kr02c24                log                    factor                1.9323417748E+02      2.0000000000E+01      2.0000000000E+03       p                     1.0000000000E+00      0.0000000000E+00      1          
kr02c25                log                    factor                7.4624992001E+02      2.0000000000E+01      2.0000000000E+03       p                     1.0000000000E+00      0.0000000000E+00      1          
kr02c26                log                    factor                4.9966227354E+01      2.0000000000E+01      2.0000000000E+03       p                     1.0000000000E+00      0.0000000000E+00      1          
kr02c27                log                    factor                1.5186252741E+01      2.0000000000E+01      2.0000000000E+03       p                     1.0000000000E+00      0.0000000000E+00      1          
kr02c28                log                    factor                2.8509844202E+01      2.0000000000E+01      2.0000000000E+03       p                     1.0000000000E+00      0.0000000000E+00      1          
kr02c29                log                    factor                2.1144912509E+02      2.0000000000E+01      2.0000000000E+03       p                     1.0000000000E+00      0.0000000000E+00      1          
kr02c30                log                    factor                3.1482457646E+02      2.0000000000E+01      2.0000000000E+03       p                     1.0000000000E+00      0.0000000000E+00      1          
kr02c31                log                    factor                3.7230415414E+02      2.0000000000E+01      2.0000000000E+03       p                     1.0000000000E+00      0.0000000000E+00      1          
kr02c32                log                    factor                1.2542705267E+02      2.0000000000E+01      2.0000000000E+03       p                     1.0000000000E+00      0.0000000000E+00      1          
kr02c33                log                    factor                7.1119506198E+01      2.0000000000E+01      2.0000000000E+03       p                     1.0000000000E+00      0.0000000000E+00      1          
kr02c34                log                    factor                2.2262221415E+01      2.0000000000E+01      2.0000000000E+03       p                     1.0000000000E+00      0.0000000000E+00      1          
kr02c35                log                    factor                8.4362212746E+01      2.0000000000E+01      2.0000000000E+03       p                     1.0000000000E+00      0.0000000000E+00      1          
kr02c36                log                    factor                1.2475403428E+03      2.0000000000E+01      2.0000000000E+03       p                     1.0000000000E+00      0.0000000000E+00      1          
kr02c37                log                    factor                7.2533653988E+02      2.0000000000E+01      2.0000000000E+03       p                     1.0000000000E+00      0.0000000000E+00      1          
kr02c38                log                    factor                9.8526247952E+01      2.0000000000E+01      2.0000000000E+03       p                     1.0000000000E+00      0.0000000000E+00      1          
kr02c39                log                    factor                6.7359465795E+01      2.0000000000E+01      2.0000000000E+03       p                     1.0000000000E+00      0.0000000000E+00      1          
kr02c40                log                    factor                1.3721134837E+02      2.0000000000E+01      2.0000000000E+03       p                     1.0000000000E+00      0.0000000000E+00      1          
kr02c41                log                    factor                8.6582062211E+02      2.0000000000E+01      2.0000000000E+03       p                     1.0000000000E+00      0.0000000000E+00      1          
kr02c42                log                    factor                1.5203192031E+02      2.0000000000E+01      2.0000000000E+03       p                     1.0000000000E+00      0.0000000000E+00      1          
kr02c43                log                    factor                6.9425994064E+00      2.0000000000E+01      2.0000000000E+03       p                     1.0000000000E+00      0.0000000000E+00      1          
kr02c44                log                    factor                1.0102245725E+02      2.0000000000E+01      2.0000000000E+03       p                     1.0000000000E+00      0.0000000000E+00      1          
kr02c45                log                    factor                1.9876838804E+02      2.0000000000E+01      2.0000000000E+03       p                     1.0000000000E+00      0.0000000000E+00      1          
kr02c46                log                    factor                1.0074695483E+02      2.0000000000E+01      2.0000000000E+03       p                     1.0000000000E+00      0.0000000000E+00      1          
kr02c47                log                    factor                1.5042521183E+02      2.0000000000E+01      2.0000000000E+03       p                     1.0000000000E+00      0.0000000000E+00      1          
kr02c48                log                    factor                7.0762837954E+01      2.0000000000E+01      2.0000000000E+03       p                     1.0000000000E+00      0.0000000000E+00      1          
kr02c49                log                    factor                9.6875069935E+00      2.0000000000E+01      2.0000000000E+03       p                     1.0000000000E+00      0.0000000000E+00      1          
kr02c50                log                    factor                3.4248869243E+02      2.0000000000E+01      2.0000000000E+03       p                     1.0000000000E+00      0.0000000000E+00      1          
kr02c51                log                    factor                6.1352193134E+01      2.0000000000E+01      2.0000000000E+03       p                     1.0000000000E+00      0.0000000000E+00      1          
kr02c52                log                    factor                9.5322692738E+01      2.0000000000E+01      2.0000000000E+03       p                     1.0000000000E+00      0.0000000000E+00      1          
kr02c53                log                    factor                4.6514889336E+02      2.0000000000E+01      2.0000000000E+03       p                     1.0000000000E+00      0.0000000000E+00      1          
kr02c54                log                    factor                2.2757198954E+02      2.0000000000E+01      2.0000000000E+03       p                     1.0000000000E+00      0.0000000000E+00      1          
kr02c55                log                    factor                5.8346116892E+01      2.0000000000E+01      2.0000000000E+03       p                     1.0000000000E+00      0.0000000000E+00      1          
kr02c56                log                    factor                2.0741951636E+02      2.0000000000E+01      2.0000000000E+03       p                     1.0000000000E+00      0.0000000000E+00      1          
kr02c57                log                    factor                2.6534852246E+02      2.0000000000E+01      2.0000000000E+03       p                     1.0000000000E+00      0.0000000000E+00      1          
kr02c58                log                    factor                1.8682119317E+02      2.0000000000E+01      2.0000000000E+03       p                     1.0000000000E+00      0.0000000000E+00      1          
kr02c59                log                    factor                6.8481970360E+01      2.0000000000E+01      2.0000000000E+03       p                     1.0000000000E+00      0.0000000000E+00      1          
kr02c60                log                    factor                1.3768426855E+02      2.0000000000E+01      2.0000000000E+03       p                     1.0000000000E+00      0.0000000000E+00      1          
kr03c01                log                    factor                5.1001797076E+02      2.0000000000E+01      2.0000000000E+03       p                     1.0000000000E+00      0.0000000000E+00      1          
kr03c02                log                    factor                2.7136521463E+02      2.0000000000E+01      2.0000000000E+03       p                     1.0000000000E+00      0.0000000000E+00      1          
kr03c03                log                    factor                2.4889546796E+03      2.0000000000E+01      2.0000000000E+03       p                     1.0000000000E+00      0.0000000000E+00      1          
kr03c04                log                    factor                1.0344251317E+03      2.0000000000E+01      2.0000000000E+03       p                     1.0000000000E+00      0.0000000000E+00      1          
kr03c05                log                    factor                1.4788209067E+02      2.0000000000E+01      2.0000000000E+03       p                     1.0000000000E+00      0.0000000000E+00      1          
kr03c06                log                    factor                3.2988010037E+02      2.0000000000E+01      2.0000000000E+03       p                     1.0000000000E+00      0.0000000000E+00      1          
kr03c07                log                    factor                7.6294515311E+01      2.0000000000E+01      2.0000000000E+03       p                     1.0000000000E+00      0.0000000000E+00      1          
kr03c08                log                    factor                6.8226162087E+01      2.0000000000E+01      2.0000000000E+03       p                     1.0000000000E+00      0.0000000000E+00      1          
kr03c09                log                    factor                1.9624528414E+01      2.0000000000E+01      2.0000000000E+03       p                     1.0000000000E+00      0.0000000000E+00      1          
kr03c10                log                    factor                4.1698545108E+01      2.0000000000E+01      2.0000000000E+03       p                     1.0000000000E+00      0.0000000000E+00      1          
kr03c11                log                    factor                4.4732234374E+01      2.0000000000E+01      2.0000000000E+03       p                     1.0000000000E+00      0.0000000000E+00      1          
kr03c12                log                    factor                1.8547192295E+02      2.0000000000E+01      2.0000000000E+03       p                     1.0000000000E+00      0.0000000000E+00      1          
kr03c13                log                    factor                7.5623291208E+02      2.0000000000E+01      2.0000000000E+03       p                     1.0000000000E+00      0.0000000000E+00      1          