pcf
* control data
             restart          estimation
       601        75         2         0         3         0
         2         5              single               point         1         0         0          noobsreref
   1.000000E+01   2.000000E+00   3.000000E-01   3.000000E-02        10       999          lamforgive        noderforgive
   3.000000E+00   3.000000E+00   1.000000E-03         0         0
   1.000000E-01         1   1.100000E+00               noaui          nosenreuse        noboundscale
        -1   5.000000E-03         4         4   1.000000E-03         4   0.000000E+00         1  -1.000000E+00
         1         1         1         0             jcosave          verboserec          jcosaveitn          reisaveitn          parsaveitn        noparsaverun
* singular value decomposition
         1
  10000000    1.000000E-06
1
* parameter groups
p                       relative              1.0000000000E-02       0.0  switch                2.0000000000E+00       parabolic             1.0000000000E-05      5.0000000000E-01       smaller              
m                       relative              1.0000000000E-02       0.0  switch                2.0000000000E+00       parabolic             1.0000000000E-05      5.0000000000E-01       smaller
* parameter data
mult1                  log                    factor                9.6522612038E-01      2.5000000000E-01      2.5000000000E+00       m                     1.0000000000E+00      0.0000000000E+00      1          
kr01c01                log                    factor                4.1140087373E+02      2.0000000000E+01      2.0000000000E+03       p                     1.0000000000E+00      0.0000000000E+00      1          
kr01c02                log                    factor                7.8785755145E+01      2.0000000000E+01      2.0000000000E+03       p                     1.0000000000E+00      0.0000000000E+00      1          
kr01c03                log                    factor                2.9788659607E+01      2.0000000000E+01      2.0000000000E+03       p                     1.0000000000E+00      0.0000000000E+00      1          
kr01c04                log                    factor                3.1379518146E+02      2.0000000000E+01      2.0000000000E+03       p                     1.0000000000E+00      0.0000000000E+00      1          
kr01c05                log                    factor                4.8943697978E+01      2.0000000000E+01      2.0000000000E+03       p                     1.0000000000E+00      0.0000000000E+00      1          
kr01c06                log                    factor                1.4343031882E+02      2.0000000000E+01      2.0000000000E+03       p                     1.0000000000E+00      0.0000000000E+00      1          
kr01c07                log                    factor                6.9927397769E+01      2.0000000000E+01      2.0000000000E+03       p                     1.0000000000E+00      0.0000000000E+00      1          
kr01c08                log                    factor                3.1405374455E+01      2.0000000000E+01      2.0000000000E+03       p                     1.0000000000E+00      0.0000000000E+00      1          
kr01c09                log                    factor                1.7293843416E+02      2.0000000000E+01      2.0000000000E+03       p                     1.0000000000E+00      0.0000000000E+00      1          
kr01c10                log                    factor                4.8015227555E+01      2.0000000000E+01      2.0000000000E+03       p                     1.0000000000E+00      0.0000000000E+00      1          
kr01c11                log                    factor                1.3862088346E+02      2.0000000000E+01      2.0000000000E+03       p                     1.0000000000E+00      0.0000000000E+00      1          
kr01c12                log                    factor                1.4045510482E+02      2.0000000000E+01      2.0000000000E+03       p                     1.0000000000E+00      0.0000000000E+00      1          
kr01c13                log                    factor                1.8868462960E+02      2.0000000000E+01      2.0000000000E+03       p                     1.0000000000E+00      0.0000000000E+00      1          
kr01c14                log                    factor                4.6874764639E+02      2.0000000000E+01      2.0000000000E+03       p                     1.0000000000E+00      0.0000000000E+00      1          
kr01c15                log                    factor                1.0287809302E+02      2.0000000000E+01      2.0000000000E+03       p                     1.0000000000E+00      0.0000000000E+00      1          
kr01c16                log                    factor                5.9723912773E+02      2.0000000000E+01      2.0000000000E+03       p                     1.0000000000E+00      0.0000000000E+00      1          
kr01c17                log                    factor                1.6076457009E+01      2.0000000000E+01      2.0000000000E+03       p                     1.0000000000E+00      0.0000000000E+00      1          
kr01c18                log                    factor                1.2979162062E+03      2.0000000000E+01      2.0000000000E+03       p                     1.0000000000E+00      0.0000000000E+00      1          
kr01c19                log                    factor                8.9710321291E+01      2.0000000000E+01      2.0000000000E+03       p                     1.0000000000E+00      0.0000000000E+00      1          
kr01c20                log                    factor                7.4833438960E+01      2.0000000000E+01      2.0000000000E+03       p                     1.0000000000E+00      0.0000000000E+00      1          
kr01c21                log                    factor                5.7953140610E+02      2.0000000000E+01      2.0000000000E+03       p                     1.0000000000E+00      0.0000000000E+00      1          
kr01c22                log                    factor                3.1531685594E+02      2.0000000000E+01      2.0000000000E+03       p                     1.0000000000E+00      0.0000000000E+00      1          
kr01c23                log                    factor                1.5181544005E+03      2.0000000000E+01      2.0000000000E+03       p                     1.0000000000E+00      0.0000000000E+00      1          
kr01c24                log                    factor                1.9557230242E+02      2.0000000000E+01      2.0000000000E+03       p                     1.0000000000E+00      0.0000000000E+00      1          
kr01c25                log                    factor                2.0140631994E+02      2.0000000000E+01      2.0000000000E+03       p                     1.0000000000E+00      0.0000000000E+00      1          
kr01c26                log                    factor                1.5854326218E+02      2.0000000000E+01      2.0000000000E+03       p                     1.0000000000E+00      0.0000000000E+00      1          
kr01c27                log                    factor                6.8257105093E+01      2.0000000000E+01      2.0000000000E+03       p                     1.0000000000E+00      0.0000000000E+00      1          
kr01c28                log                    factor                6.2169000044E+01      2.0000000000E+01      2.0000000000E+03       p                     1.0000000000E+00      0.0000000000E+00      1          
kr01c29                log                    factor                2.2517612398E+02      2.0000000000E+01      2.0000000000E+03       p                     1.0000000000E+00      0.0000000000E+00      1          
kr01c30                log                    factor                9.3507883443E+02      2.0000000000E+01      2.0000000000E+03       p                     1.0000000000E+00      0.0000000000E+00      1          
kr01c31                log                    factor                4.5017034257E+02      2.0000000000E+01      2.0000000000E+03       p                     1.0000000000E+00      0.0000000000E+00      1          
kr01c32                log                    factor                8.9047585303E+01      2.0000000000E+01      2.0000000000E+03       p                     1.0000000000E+00      0.0000000000E+00      1          
kr01c33                log                    factor                5.5398833447E+02      2.0000000000E+01      2.0000000000E+03       p                     1.0000000000E+00      0.0000000000E+00      1          
kr01c34                log                    factor                3.5663817909E+02      2.0000000000E+01      2.0000000000E+03       p                     1.0000000000E+00      0.0000000000E+00      1          
kr01c35                log                    factor                1.8893818080E+01      2.0000000000E+01      2.0000000000E+03       p                     1.0000000000E+00      0.0000000000E+00      1          
kr01c36                log                    factor                6.2181592499E+01      2.0000000000E+01      2.0000000000E+03       p                     1.0000000000E+00      0.0000000000E+00      1          
kr01c37                log                    factor                8.1009809754E+01      2.0000000000E+01      2.0000000000E+03       p                     1.0000000000E+00      0.0000000000E+00      1          
kr01c38                log                    factor                1.2809237521E+02      2.0000000000E+01      2.0000000000E+03       p                     1.0000000000E+00      0.0000000000E+00      1          
kr01c39                log                    factor                2.0050105541E+02      2.0000000000E+01      2.0000000000E+03       p                     1.0000000000E+00      0.0000000000E+00      1          
kr01c40                log                    factor                1.5195468901E+03      2.0000000000E+01      2.0000000000E+03       p                     1.0000000000E+00      0.0000000000E+00      1          
kr01c41                log                    factor                1.9815613329E+02      2.0000000000E+01      2.0000000000E+03       p                     1.0000000000E+00      0.0000000000E+00      1          
kr01c42                log                    factor                6.2602799157E+01      2.0000000000E+01      2.0000000000E+03       p                     1.0000000000E+00      0.0000000000E+00      1          
kr01c43                log                    factor                1.8731898906E+02      2.0000000000E+01      2.0000000000E+03       p                     1.0000000000E+00      0.0000000000E+00      1          
kr01c44                log                    factor                1.2783824918E+02      2.0000000000E+01      2.0000000000E+03       p                     1.0000000000E+00      0.0000000000E+00      1          
kr01c45                log                    factor                9.2305872495E+01      2.0000000000E+01      2.0000000000E+03       p                     1.0000000000E+00      0.0000000000E+00      1          
kr01c46                log                    factor                8.0529498766E+02      2.0000000000E+01      2.0000000000E+03       p                     1.0000000000E+00      0.0000000000E+00      1          
kr01c47                log                    factor                6.2655231617E+02      2.0000000000E+01      2.0000000000E+03       p                     1.0000000000E+00      0.0000000000E+00      1          
kr01c48                log                    factor                5.9218611096E+02      2.0000000000E+01      2.0000000000E+03       p                     1.0000000000E+00      0.0000000000E+00      1          
kr01c49                log                    factor                6.7711530412E+02      2.0000000000E+01      2.0000000000E+03       p                     1.0000000000E+00      0.0000000000E+00      1          
kr01c50                log                    factor                1.8722503293E+02      2.0000000000E+01      2.0000000000E+03       p                     1.0000000000E+00      0.0000000000E+00      1          
kr01c51                log                    factor                3.8111428509E+02      2.0000000000E+01      2.0000000000E+03       p                     1.0000000000E+00      0.0000000000E+00      1          
kr01c52                log                    factor                4.5931026522E+01      2.0000000000E+01      2.0000000000E+03       p                     1.0000000000E+00      0.0000000000E+00      1          
kr01c53                log                    factor                1.3641842219E+02      2.0000000000E+01      2.0000000000E+03       p                     1.0000000000E+00      0.0000000000E+00      1          
kr01c54                log                    factor                5.1028142670E+02      2.0000000000E+01      2.0000000000E+03       p                     1.0000000000E+00      0.0000000000E+00      1          
kr01c55                log                    factor                6.2662234090E+02      2.0000000000E+01      2.0000000000E+03       p                     1.0000000000E+00      0.0000000000E+00      1          
kr01c56                log                    factor                1.9670721628E+02      2.0000000000E+01      2.0000000000E+03       p                     1.0000000000E+00      0.0000000000E+00      1          
kr01c57                log                    factor                9.2968326983E+01      2.0000000000E+01      2.0000000000E+03       p                     1.0000000000E+00      0.0000000000E+00      1          
kr01c58                log                    factor                8.6746686362E+01      2.0000000000E+01      2.0000000000E+03       p                     1.0000000000E+00      0.0000000000E+00      1          
kr01c59                log                    factor                5.9128640403E+01      2.0000000000E+01      2.0000000000E+03       p                     1.0000000000E+00      0.0000000000E+00      1          
kr01c60                log                    factor                8.4880623720E+02      2.0000000000E+01      2.0000000000E+03       p                     1.0000000000E+00      0.0000000000E+00      1          
kr02c01                log                    factor                4.3828786201E+01      2.0000000000E+01      2.0000000000E+03       p                     1.0000000000E+00      0.0000000000E+00      1          
kr02c02                log                    factor                1.5908323572E+02      2.0000000000E+01      2.0000000000E+03       p                     1.0000000000E+00      0.0000000000E+00      1          
kr02c03                log                    factor                6.3383932564E+02      2.0000000000E+01      2.0000000000E+03       p                     1.0000000000E+00      0.0000000000E+00      1          
kr02c04                log                    factor                1.1086364969E+02      2.0000000000E+01      2.0000000000E+03       p                     1.0000000000E+00      0.0000000000E+00      1          
kr02c05                log                    factor                9.4995926060E+01      2.0000000000E+01      2.0000000000E+03       p                     1.0000000000E+00      0.0000000000E+00      1          
kr02c06                log                    factor                1.7230251449E+02      2.0000000000E+01      2.0000000000E+03       p                     1.0000000000E+00      0.0000000000E+00      1          
kr02c07                log                    factor                1.6597017566E+02      2.0000000000E+01      2.0000000000E+03       p                     1.0000000000E+00      0.0000000000E+00      1          
kr02c08                log                    factor                4.7933036144E+02      2.0000000000E+01      2.0000000000E+03       p                     1.0000000000E+00      0.0000000000E+00      1          
kr02c09                log                    factor                4.7059960219E+02      2.0000000000E+01      2.0000000000E+03       p                     1.0000000000E+00      0.0000000000E+00      1          
kr02c10                log                    factor                4.2946490228E+02      2.0000000000E+01      2.0000000000E+03       p                     1.0000000000E+00      0.0000000000E+00      1          
kr02c11                log                    factor                5.9601267688E+02      2.0000000000E+01      2.0000000000E+03       p                     1.0000000000E+00      0.0000000000E+00      1          
kr02c12                log                    factor                5.7545083099E+01      2.0000000000E+01      2.0000000000E+03       p                     1.0000000000E+00      0.0000000000E+00      1          
kr02c13                log                    factor                1.0777936118E+02      2.0000000000E+01      2.0000000000E+03       p                     1.0000000000E+00      0.0000000000E+00      1          
kr02c14                log                    factor                1.2588263215E+02      2.0000000000E+01      2.0000000000E+03       p                     1.0000000000E+00      0.0000000000E+00      1          
kr02c15                log                    factor                5.6681477938E+01      2.0000000000E+01      2.0000000000E+03       p                     1.0000000000E+00      0.0000000000E+00      1          
kr02c16                log                    factor                6.9901982407E+02      2.0000000000E+01      2.0000000000E+03       p                     1.0000000000E+00      0.0000000000E+00      1          
kr02c17                log                    factor                1.3328767192E+02      2.0000000000E+01      2.0000000000E+03       p                     1.0000000000E+00      0.0000000000E+00      1          
kr02c18                log                    factor                4.8967433389E+02      2.0000000000E+01      2.0000000000E+03       p                     1.0000000000E+00      0.0000000000E+00      1          
kr02c19                log                    factor                3.2216834749E+02      2.0000000000E+01      2.0000000000E+03       p                     1.0000000000E+00      0.0000000000E+00      1          
kr02c20                log                    factor                4.7209360878E+02      2.0000000000E+01      2.0000000000E+03       p                     1.0000000000E+00      0.0000000000E+00      1          
kr02c21                log                    factor                2.5031120121E+02      2.0000000000E+01      2.0000000000E+03       p                     1.0000000000E+00      0.0000000000E+00      1          
kr02c22                log                    factor                3.7083565454E+02      2.0000000000E+01      2.0000000000E+03       p                     1.0000000000E+00      0.0000000000E+00      1          
kr02c23                log                    factor                5.5491401276E+02      2.0000000000E+01      2.0000000000E+03       p                     1.0000000000E+00      0.0000000000E+00      1          
kr02c24                log                    factor                2.5780132501E+01      2.0000000000E+01      2.0000000000E+03       p                     1.0000000000E+00      0.0000000000E+00      1          
kr02c25                log                    factor                4.7629224451E+01      2.0000000000E+01      2.0000000000E+03       p                     1.0000000000E+00      0.0000000000E+00      1          
kr02c26                log                    factor                1.7972136962E+03      2.0000000000E+01      2.0000000000E+03       p                     1.0000000000E+00      0.0000000000E+00      1          
kr02c27                log                    factor                3.0023056165E+02      2.0000000000E+01      2.0000000000E+03       p                     1.0000000000E+00      0.0000000000E+00      1          
kr02c28                log                    factor                1.1560245038E+02      2.0000000000E+01      2.0000000000E+03       p                     1.0000000000E+00      0.0000000000E+00      1          
kr02c29                log                    factor                2.3347985602E+02      2.0000000000E+01      2.0000000000E+03       p                     1.0000000000E+00      0.0000000000E+00      1          
kr02c30                log                    factor                1.5654217265E+02      2.0000000000E+01      2.0000000000E+03       p                     1.0000000000E+00      0.0000000000E+00      1          
kr02c31                log                    factor                1.1420392906E+03      2.0000000000E+01      2.0000000000E+03       p                     1.0000000000E+00      0.0000000000E+00      1          
kr02c32                log                    factor                9.5045283713E+02      2.0000000000E+01      2.0000000000E+03       p                     1.0000000000E+00      0.0000000000E+00      1          
kr02c33                log                    factor                3.9965719333E+01      2.0000000000E+01      2.0000000000E+03       p                     1.0000000000E+00      0.0000000000E+00      1          
kr02c34                log                    factor                5.3057031224E+01      2.0000000000E+01      2.0000000000E+03       p                     1.0000000000E+00      0.0000000000E+00      1          
kr02c35                log                    factor                1.0536132577E+03      2.0000000000E+01      2.0000000000E+03       p                     1.0000000000E+00      0.0000000000E+00      1          
kr02c36                log                    factor                2.9078609846E+02      2.0000000000E+01      2.0000000000E+03       p                     1.0000000000E+00      0.0000000000E+00      1          
kr02c37                log                    factor                4.1337222353E+02      2.0000000000E+01      2.0000000000E+03       p                     1.0000000000E+00      0.0000000000E+00      1          
kr02c38                log                    factor                1.5891021770E+02      2.0000000000E+01      2.0000000000E+03       p                     1.0000000000E+00      0.0000000000E+00      1          
kr02c39                log                    factor                2.4421911105E+03      2.0000000000E+01      2.0000000000E+03       p                     1.0000000000E+00      0.0000000000E+00      1          
kr02c40                log                    factor                9.5220450763E+01      2.0000000000E+01      2.0000000000E+03       p                     1.0000000000E+00      0.0000000000E+00      1          
kr02c41                log                    factor                4.3108727331E+02      2.0000000000E+01      2.0000000000E+03       p                     1.0000000000E+00      0.0000000000E+00      1          
kr02c42                log                    factor                9.8977228471E+01      2.0000000000E+01      2.0000000000E+03       p                     1.0000000000E+00      0.0000000000E+00      1          
kr02c43                log                    factor                1.4706439499E+02      2.0000000000E+01      2.0000000000E+03       p                     1.0000000000E+00      0.0000000000E+00      1          
kr02c44                log                    factor                1.1809485692E+03      2.0000000000E+01      2.0000000000E+03       p                     1.0000000000E+00      0.0000000000E+00      1          
kr02c45                log                    factor                1.8061149866E+02      2.0000000000E+01      2.0000000000E+03       p                     1.0000000000E+00      0.0000000000E+00      1          
kr02c46                log                    factor                2.9526658967E+02      2.0000000000E+01      2.0000000000E+03       p                     1.0000000000E+00      0.0000000000E+00      1          
kr02c47                log                    factor                3.4383094206E+03      2.0000000000E+01      2.0000000000E+03       p                     1.0000000000E+00      0.0000000000E+00      1          
kr02c48                log                    factor                1.0500250756E+03      2.0000000000E+01      2.0000000000E+03       p                     1.0000000000E+00      0.0000000000E+00      1          
kr02c49                log                    factor                8.8382085229E+01      2.0000000000E+01      2.0000000000E+03       p                     1.0000000000E+00      0.0000000000E+00      1          
kr02c50                log                    factor                3.3598800781E+02      2.0000000000E+01      2.0000000000E+03       p                     1.0000000000E+00      0.0000000000E+00      1          
kr02c51                log                    factor                5.7870738495E+01      2.0000000000E+01      2.0000000000E+03       p                     1.0000000000E+00      0.0000000000E+00      1          
kr02c52                log                    factor                1.9490408260E+02      2.0000000000E+01      2.0000000000E+03       p                     1.0000000000E+00      0.0000000000E+00      1          
kr02c53                log                    factor                5.5429477501E+01      2.0000000000E+01      2.0000000000E+03       p                     1.0000000000E+00      0.0000000000E+00      1          
kr02c54                log                    factor                1.5216833840E+02      2.0000000000E+01      2.0000000000E+03       p                     1.0000000000E+00      0.0000000000E+00      1          
kr02c55                log                    factor                7.3660819600E+02      2.0000000000E+01      2.0000000000E+03       p                     1.0000000000E+00      0.0000000000E+00      1          
kr02c56                log                    factor                5.4579261134E+02      2.0000000000E+01      2.0000000000E+03       p                     1.0000000000E+00      0.0000000000E+00      1          
kr02c57                log                    factor                2.2992583990E+02      2.0000000000E+01      2.0000000000E+03       p                     1.0000000000E+00      0.0000000000E+00      1          
kr02c58                log                    factor                5.3215701929E+02      2.0000000000E+01      2.0000000000E+03       p                     1.0000000000E+00      0.0000000000E+00      1          
kr02c59                log                    factor                8.3268773749E+01      2.0000000000E+01      2.0000000000E+03       p                     1.0000000000E+00      0.0000000000E+00      1          
kr02c60                log                    factor                5.9882999590E+01      2.0000000000E+01      2.0000000000E+03       p                     1.0000000000E+00      0.0000000000E+00      1          
kr03c01                log                    factor                2.1503106883E+02      2.0000000000E+01      2.0000000000E+03       p                     1.0000000000E+00      0.0000000000E+00      1          
kr03c02                log                    factor                2.2365309783E+02      2.0000000000E+01      2.0000000000E+03       p                     1.0000000000E+00      0.0000000000E+00      1          
kr03c03                log                    factor                1.5008664353E+02      2.0000000000E+01      2.0000000000E+03       p                     1.0000000000E+00      0.0000000000E+00      1          
kr03c04                log                    factor                1.1863710544E+02      2.0000000000E+01      2.0000000000E+03       p                     1.0000000000E+00      0.0000000000E+00      1          
kr03c05                log                    factor                1.4787968726E+02      2.0000000000E+01      2.0000000000E+03       p                     1.0000000000E+00      0.0000000000E+00      1          
kr03c06                log                    factor                9.0627155319E+02      2.0000000000E+01      2.0000000000E+03       p                     1.0000000000E+00      0.0000000000E+00      1          
kr03c07                log                    factor                5.8977749166E+02      2.0000000000E+01      2.0000000000E+03       p                     1.0000000000E+00      0.0000000000E+00      1          
kr03c08                log                    factor                2.9067236367E+02      2.0000000000E+01      2.0000000000E+03       p                     1.0000000000E+00      0.0000000000E+00      1          
kr03c09                log                    factor                2.1593865535E+02      2.0000000000E+01      2.0000000000E+03       p                     1.0000000000E+00      0.0000000000E+00      1          
kr03c10                log                    factor                2.8300068137E+02      2.0000000000E+01      2.0000000000E+03       p                     1.0000000000E+00      0.0000000000E+00      1          
kr03c11                log                    factor                2.1062968130E+02      2.0000000000E+01      2.0000000000E+03       p                     1.0000000000E+00      0.0000000000E+00      1          
kr03c12                log                    factor                8.8862093142E+01      2.0000000000E+01      2.0000000000E+03       p                     1.0000000000E+00      0.0000000000E+00      1          
kr03c13                log                    factor                1.2530173538E+02      2.0000000000E+01      2.0000000000E+03       p                     1.0000000000E+00      0.0000000000E+00      1          