pcf
* control data
             restart          estimation
       601        75         2         0         3         0
         2         5              single               point         1         0         0          noobsreref
   1.000000E+01   2.000000E+00   3.000000E-01   3.000000E-02        10       999          lamforgive        noderforgive
   3.000000E+00   3.000000E+00   1.000000E-03         0         0
   1.000000E-01         1   1.100000E+00               noaui          nosenreuse        noboundscale
        -1   5.000000E-03         4         4   1.000000E-03         4   0.000000E+00         1  -1.000000E+00
         1         1         1         0             jcosave          verboserec          jcosaveitn          reisaveitn          parsaveitn        noparsaverun
* singular value decomposition
         1
  10000000    1.000000E-06
1
* parameter groups
p                       relative              1.0000000000E-02       0.0  switch                2.0000000000E+00       parabolic             1.0000000000E-05      5.0000000000E-01       smaller              
m                       relative              1.0000000000E-02       0.0  switch                2.0000000000E+00       parabolic             1.0000000000E-05      5.0000000000E-01       smaller
* parameter data
mult1                  log                    factor                9.8295831477E-01      2.5000000000E-01      2.5000000000E+00       m                     1.0000000000E+00      0.0000000000E+00      1          
kr01c01                log                    factor                1.6708179780E+02      2.0000000000E+01      2.0000000000E+03       p                     1.0000000000E+00      0.0000000000E+00      1          
kr01c02                log                    factor                5.9428616288E+02      2.0000000000E+01      2.0000000000E+03       p                     1.0000000000E+00      0.0000000000E+00      1          
kr01c03                log                    factor                6.1834239511E+01      2.0000000000E+01      2.0000000000E+03       p                     1.0000000000E+00      0.0000000000E+00      1          
kr01c04                log                    factor                2.7850229370E+02      2.0000000000E+01      2.0000000000E+03       p                     1.0000000000E+00      0.0000000000E+00      1          
kr01c05                log                    factor                1.5960046997E+02      2.0000000000E+01      2.0000000000E+03       p                     1.0000000000E+00      0.0000000000E+00      1          
kr01c06                log                    factor                7.5146084856E+01      2.0000000000E+01      2.0000000000E+03       p                     1.0000000000E+00      0.0000000000E+00      1          
kr01c07                log                    factor                1.8117170429E+03      2.0000000000E+01      2.0000000000E+03       p                     1.0000000000E+00      0.0000000000E+00      1          
kr01c08                log                    factor                5.6750577096E+02      2.0000000000E+01      2.0000000000E+03       p                     1.0000000000E+00      0.0000000000E+00      1          
kr01c09                log                    factor                8.5314128691E+01      2.0000000000E+01      2.0000000000E+03       p                     1.0000000000E+00      0.0000000000E+00      1          
kr01c10                log                    factor                3.1189175001E+02      2.0000000000E+01      2.0000000000E+03       p                     1.0000000000E+00      0.0000000000E+00      1          
kr01c11                log                    factor                3.5008767008E+01      2.0000000000E+01      2.0000000000E+03       p                     1.0000000000E+00      0.0000000000E+00      1          
kr01c12                log                    factor                4.9878031032E+01      2.0000000000E+01      2.0000000000E+03       p                     1.0000000000E+00      0.0000000000E+00      1          
kr01c13                log                    factor                6.3547308226E+02      2.0000000000E+01      2.0000000000E+03       p                     1.0000000000E+00      0.0000000000E+00      1          
kr01c14                log                    factor                1.4132751574E+02      2.0000000000E+01      2.0000000000E+03       p                     1.0000000000E+00      0.0000000000E+00      1          
kr01c15                log                    factor                1.3999155250E+02      2.0000000000E+01      2.0000000000E+03       p                     1.0000000000E+00      0.0000000000E+00      1          
kr01c16                log                    factor                1.7195206609E+02      2.0000000000E+01      2.0000000000E+03       p                     1.0000000000E+00      0.0000000000E+00      1          
kr01c17                log                    factor                2.2911587032E+01      2.0000000000E+01      2.0000000000E+03       p                     1.0000000000E+00      0.0000000000E+00      1          
kr01c18                log                    factor                3.3766890250E+01      2.0000000000E+01      2.0000000000E+03       p                     1.0000000000E+00      0.0000000000E+00      1          
kr01c19                log                    factor                2.3795776924E+02      2.0000000000E+01      2.0000000000E+03       p                     1.0000000000E+00      0.0000000000E+00      1          
kr01c20                log                    factor                1.2330174274E+02      2.0000000000E+01      2.0000000000E+03       p                     1.0000000000E+00      0.0000000000E+00      1          
kr01c21                log                    factor                2.8300580618E+02      2.0000000000E+01      2.0000000000E+03       p                     1.0000000000E+00      0.0000000000E+00      1          
kr01c22                log                    factor                1.8677768019E+02      2.0000000000E+01      2.0000000000E+03       p                     1.0000000000E+00      0.0000000000E+00      1          
kr01c23                log                    factor                3.1278602384E+02      2.0000000000E+01      2.0000000000E+03       p                     1.0000000000E+00      0.0000000000E+00      1          
kr01c24                log                    factor                1.7412530214E+02      2.0000000000E+01      2.0000000000E+03       p                     1.0000000000E+00      0.0000000000E+00      1          
kr01c25                log                    factor                1.8097897760E+02      2.0000000000E+01      2.0000000000E+03       p                     1.0000000000E+00      0.0000000000E+00      1          
kr01c26                log                    factor                4.9293674599E+02      2.0000000000E+01      2.0000000000E+03       p                     1.0000000000E+00      0.0000000000E+00      1          
kr01c27                log                    factor                7.4778392882E+01      2.0000000000E+01      2.0000000000E+03       p                     1.0000000000E+00      0.0000000000E+00      1          
kr01c28                log                    factor                2.3952401725E+03      2.0000000000E+01      2.0000000000E+03       p                     1.0000000000E+00      0.0000000000E+00      1          
kr01c29                log                    factor                4.0795077312E+02      2.0000000000E+01      2.0000000000E+03       p                     1.0000000000E+00      0.0000000000E+00      1          
kr01c30                log                    factor                2.1331969720E+02      2.0000000000E+01      2.0000000000E+03       p                     1.0000000000E+00      0.0000000000E+00      1          
kr01c31                log                    factor                5.1037314868E+01      2.0000000000E+01      2.0000000000E+03       p                     1.0000000000E+00      0.0000000000E+00      1          
kr01c32                log                    factor                6.3491063895E+01      2.0000000000E+01      2.0000000000E+03       p                     1.0000000000E+00      0.0000000000E+00      1          
kr01c33                log                    factor                6.5340177517E+01      2.0000000000E+01      2.0000000000E+03       p                     1.0000000000E+00      0.0000000000E+00      1          
kr01c34                log                    factor                3.0012400100E+02      2.0000000000E+01      2.0000000000E+03       p                     1.0000000000E+00      0.0000000000E+00      1          
kr01c35                log                    factor                8.3850465276E+01      2.0000000000E+01      2.0000000000E+03       p                     1.0000000000E+00      0.0000000000E+00      1          
kr01c36                log                    factor                1.3800143330E+02      2.0000000000E+01      2.0000000000E+03       p                     1.0000000000E+00      0.0000000000E+00      1          
kr01c37                log                    factor                3.0990974205E+01      2.0000000000E+01      2.0000000000E+03       p                     1.0000000000E+00      0.0000000000E+00      1          
kr01c38                log                    factor                3.4428444229E+01      2.0000000000E+01      2.0000000000E+03       p                     1.0000000000E+00      0.0000000000E+00      1          
kr01c39                log                    factor                7.8953848238E+01      2.0000000000E+01      2.0000000000E+03       p                     1.0000000000E+00      0.0000000000E+00      1          
kr01c40                log                    factor                6.1115419390E+01      2.0000000000E+01      2.0000000000E+03       p                     1.0000000000E+00      0.0000000000E+00      1          
kr01c41                log                    factor                7.0099391301E+02      2.0000000000E+01      2.0000000000E+03       p                     1.0000000000E+00      0.0000000000E+00      1          
kr01c42                log                    factor                2.2696095633E+02      2.0000000000E+01      2.0000000000E+03       p                     1.0000000000E+00      0.0000000000E+00      1          
kr01c43                log                    factor                1.1059318543E+02      2.0000000000E+01      2.0000000000E+03       p                     1.0000000000E+00      0.0000000000E+00      1          
kr01c44                log                    factor                2.4201271041E+02      2.0000000000E+01      2.0000000000E+03       p                     1.0000000000E+00      0.0000000000E+00      1          
kr01c45                log                    factor                1.5246229093E+02      2.0000000000E+01      2.0000000000E+03       p                     1.0000000000E+00      0.0000000000E+00      1          
kr01c46                log                    factor                1.0729689160E+03      2.0000000000E+01      2.0000000000E+03       p                     1.0000000000E+00      0.0000000000E+00      1          
kr01c47                log                    factor                5.4614953884E+01      2.0000000000E+01      2.0000000000E+03       p                     1.0000000000E+00      0.0000000000E+00      1          
kr01c48                log                    factor                1.1965487810E+02      2.0000000000E+01      2.0000000000E+03       p                     1.0000000000E+00      0.0000000000E+00      1          
kr01c49                log                    factor                1.2179118307E+02      2.0000000000E+01      2.0000000000E+03       p                     1.0000000000E+00      0.0000000000E+00      1          
kr01c50                log                    factor                6.5625250903E+02      2.0000000000E+01      2.0000000000E+03       p                     1.0000000000E+00      0.0000000000E+00      1          
kr01c51                log                    factor                1.9645488104E+03      2.0000000000E+01      2.0000000000E+03       p                     1.0000000000E+00      0.0000000000E+00      1          
kr01c52                log                    factor                9.5817189227E+01      2.0000000000E+01      2.0000000000E+03       p                     1.0000000000E+00      0.0000000000E+00      1          
kr01c53                log                    factor                4.6016127881E+01      2.0000000000E+01      2.0000000000E+03       p                     1.0000000000E+00      0.0000000000E+00      1          
kr01c54                log                    factor                1.8364963526E+02      2.0000000000E+01      2.0000000000E+03       p                     1.0000000000E+00      0.0000000000E+00      1          
kr01c55                log                    factor                5.9785266723E+01      2.0000000000E+01      2.0000000000E+03       p                     1.0000000000E+00      0.0000000000E+00      1          
kr01c56                log                    factor                5.0747456831E+01      2.0000000000E+01      2.0000000000E+03       p                     1.0000000000E+00      0.0000000000E+00      1          
kr01c57                log                    factor                1.5377828410E+02      2.0000000000E+01      2.0000000000E+03       p                     1.0000000000E+00      0.0000000000E+00      1          
kr01c58                log                    factor                3.5428165561E+01      2.0000000000E+01      2.0000000000E+03       p                     1.0000000000E+00      0.0000000000E+00      1          
kr01c59                log                    factor                6.4112306179E+01      2.0000000000E+01      2.0000000000E+03       p                     1.0000000000E+00      0.0000000000E+00      1          
kr01c60                log                    factor                2.0495123987E+02      2.0000000000E+01      2.0000000000E+03       p                     1.0000000000E+00      0.0000000000E+00      1          
kr02c01                log                    factor                4.7851405448E+01      2.0000000000E+01      2.0000000000E+03       p                     1.0000000000E+00      0.0000000000E+00      1          
kr02c02                log                    factor                7.0179595124E+01      2.0000000000E+01      2.0000000000E+03       p                     1.0000000000E+00      0.0000000000E+00      1          
kr02c03                log                    factor                1.2644635873E+02      2.0000000000E+01      2.0000000000E+03       p                     1.0000000000E+00      0.0000000000E+00      1          
kr02c04                log                    factor                1.7959732363E+02      2.0000000000E+01      2.0000000000E+03       p                     1.0000000000E+00      0.0000000000E+00      1          
kr02c05                log                    factor                6.7106580692E+01      2.0000000000E+01      2.0000000000E+03       p                     1.0000000000E+00      0.0000000000E+00      1          
kr02c06                log                    factor                1.9791172407E+02      2.0000000000E+01      2.0000000000E+03       p                     1.0000000000E+00      0.0000000000E+00      1          
kr02c07                log                    factor                3.4378335793E+02      2.0000000000E+01      2.0000000000E+03       p                     1.0000000000E+00      0.0000000000E+00      1          
kr02c08                log                    factor                8.5708483581E+01      2.0000000000E+01      2.0000000000E+03       p                     1.0000000000E+00      0.0000000000E+00      1          
kr02c09                log                    factor                1.0993380329E+02      2.0000000000E+01      2.0000000000E+03       p                     1.0000000000E+00      0.0000000000E+00      1          
kr02c10                log                    factor                5.1419575009E+02      2.0000000000E+01      2.0000000000E+03       p                     1.0000000000E+00      0.0000000000E+00      1          
kr02c11                log                    factor                4.9961435615E+01      2.0000000000E+01      2.0000000000E+03       p                     1.0000000000E+00      0.0000000000E+00      1          
kr02c12                log                    factor                1.9709424275E+02      2.0000000000E+01      2.0000000000E+03       p                     1.0000000000E+00      0.0000000000E+00      1          
kr02c13                log                    factor                7.9702258030E+02      2.0000000000E+01      2.0000000000E+03       p                     1.0000000000E+00      0.0000000000E+00      1          
kr02c14                log                    factor                1.0229278990E+02      2.0000000000E+01      2.0000000000E+03       p                     1.0000000000E+00      0.0000000000E+00      1          
kr02c15                log                    factor                5.1786868295E+02      2.0000000000E+01      2.0000000000E+03       p                     1.0000000000E+00      0.0000000000E+00      1          
kr02c16                log                    factor                1.8181329323E+02      2.0000000000E+01      2.0000000000E+03       p                     1.0000000000E+00      0.0000000000E+00      1          
kr02c17                log                    factor                1.7096032117E+02      2.0000000000E+01      2.0000000000E+03       p                     1.0000000000E+00      0.0000000000E+00      1          
kr02c18                log                    factor                2.0114143664E+01      2.0000000000E+01      2.0000000000E+03       p                     1.0000000000E+00      0.0000000000E+00      1          
kr02c19                log                    factor                3.0833624525E+02      2.0000000000E+01      2.0000000000E+03       p                     1.0000000000E+00      0.0000000000E+00      1          
kr02c20                log                    factor                3.2345602901E+02      2.0000000000E+01      2.0000000000E+03       p                     1.0000000000E+00      0.0000000000E+00      1          
kr02c21                log                    factor                2.8275506994E+02      2.0000000000E+01      2.0000000000E+03       p                     1.0000000000E+00      0.0000000000E+00      1          
kr02c22                log                    factor                1.6986398737E+02      2.0000000000E+01      2.0000000000E+03       p                     1.0000000000E+00      0.0000000000E+00      1          
kr02c23                log                    factor                1.4888883288E+03      2.0000000000E+01      2.0000000000E+03       p                     1.0000000000E+00      0.0000000000E+00      1          
kr02c24                log                    factor                2.6669724761E+02      2.0000000000E+01      2.0000000000E+03       p                     1.0000000000E+00      0.0000000000E+00      1          
kr02c25                log                    factor                1.1468241905E+02      2.0000000000E+01      2.0000000000E+03       p                     1.0000000000E+00      0.0000000000E+00      1          
kr02c26                log                    factor                7.4235955291E+02      2.0000000000E+01      2.0000000000E+03       p                     1.0000000000E+00      0.0000000000E+00      1          
kr02c27                log                    factor                6.3690379158E+01      2.0000000000E+01      2.0000000000E+03       p                     1.0000000000E+00      0.0000000000E+00      1          
kr02c28                log                    factor                1.0918254674E+02      2.0000000000E+01      2.0000000000E+03       p                     1.0000000000E+00      0.0000000000E+00      1          
kr02c29                log                    factor                8.1942199469E+01      2.0000000000E+01      2.0000000000E+03       p                     1.0000000000E+00      0.0000000000E+00      1          
kr02c30                log                    factor                3.4995282189E+02      2.0000000000E+01      2.0000000000E+03       p                     1.0000000000E+00      0.0000000000E+00      1          
kr02c31                log                    factor                3.9715945000E+02      2.0000000000E+01      2.0000000000E+03       p                     1.0000000000E+00      0.0000000000E+00      1          
kr02c32                log                    factor                8.0174673676E+02      2.0000000000E+01      2.0000000000E+03       p                     1.0000000000E+00      0.0000000000E+00      1          
kr02c33                log                    factor                2.6521994837E+02      2.0000000000E+01      2.0000000000E+03       p                     1.0000000000E+00      0.0000000000E+00      1          
kr02c34                log                    factor                9.3032378535E+02      2.0000000000E+01      2.0000000000E+03       p                     1.0000000000E+00      0.0000000000E+00      1          
kr02c35                log                    factor                1.3979370339E+02      2.0000000000E+01      2.0000000000E+03       p                     1.0000000000E+00      0.0000000000E+00      1          
kr02c36                log                    factor                4.1188185404E+01      2.0000000000E+01      2.0000000000E+03       p                     1.0000000000E+00      0.0000000000E+00      1          
kr02c37                log                    factor                9.7944705511E+01      2.0000000000E+01      2.0000000000E+03       p                     1.0000000000E+00      0.0000000000E+00      1          
kr02c38                log                    factor                6.4270807409E+02      2.0000000000E+01      2.0000000000E+03       p                     1.0000000000E+00      0.0000000000E+00      1          
kr02c39                log                    factor                1.5545172401E+02      2.0000000000E+01      2.0000000000E+03       p                     1.0000000000E+00      0.0000000000E+00      1          
kr02c40                log                    factor                7.1083908086E+01      2.0000000000E+01      2.0000000000E+03       p                     1.0000000000E+00      0.0000000000E+00      1          
kr02c41                log                    factor                1.0318016798E+02      2.0000000000E+01      2.0000000000E+03       p                     1.0000000000E+00      0.0000000000E+00      1          
kr02c42                log                    factor                2.6927932688E+02      2.0000000000E+01      2.0000000000E+03       p                     1.0000000000E+00      0.0000000000E+00      1          
kr02c43                log                    factor                7.7860849392E+02      2.0000000000E+01      2.0000000000E+03       p                     1.0000000000E+00      0.0000000000E+00      1          
kr02c44                log                    factor                1.2071743144E+03      2.0000000000E+01      2.0000000000E+03       p                     1.0000000000E+00      0.0000000000E+00      1          
kr02c45                log                    factor                3.1016551506E+02      2.0000000000E+01      2.0000000000E+03       p                     1.0000000000E+00      0.0000000000E+00      1          
kr02c46                log                    factor                1.3807323205E+02      2.0000000000E+01      2.0000000000E+03       p                     1.0000000000E+00      0.0000000000E+00      1          
kr02c47                log                    factor                1.2499640460E+02      2.0000000000E+01      2.0000000000E+03       p                     1.0000000000E+00      0.0000000000E+00      1          
kr02c48                log                    factor                1.8582431821E+03      2.0000000000E+01      2.0000000000E+03       p                     1.0000000000E+00      0.0000000000E+00      1          
kr02c49                log                    factor                9.8068665141E+01      2.0000000000E+01      2.0000000000E+03       p                     1.0000000000E+00      0.0000000000E+00      1          
kr02c50                log                    factor                1.3382179573E+02      2.0000000000E+01      2.0000000000E+03       p                     1.0000000000E+00      0.0000000000E+00      1          
kr02c51                log                    factor                2.6179009297E+02      2.0000000000E+01      2.0000000000E+03       p                     1.0000000000E+00      0.0000000000E+00      1          
kr02c52                log                    factor                2.8915332657E+02      2.0000000000E+01      2.0000000000E+03       p                     1.0000000000E+00      0.0000000000E+00      1          
kr02c53                log                    factor                2.6257101976E+01      2.0000000000E+01      2.0000000000E+03       p                     1.0000000000E+00      0.0000000000E+00      1          
kr02c54                log                    factor                6.0141933944E+01      2.0000000000E+01      2.0000000000E+03       p                     1.0000000000E+00      0.0000000000E+00      1          
kr02c55                log                    factor                2.6564839350E+02      2.0000000000E+01      2.0000000000E+03       p                     1.0000000000E+00      0.0000000000E+00      1          
kr02c56                log                    factor                4.4581151764E+01      2.0000000000E+01      2.0000000000E+03       p                     1.0000000000E+00      0.0000000000E+00      1          
kr02c57                log                    factor                3.4855648187E+02      2.0000000000E+01      2.0000000000E+03       p                     1.0000000000E+00      0.0000000000E+00      1          
kr02c58                log                    factor                5.4738237610E+01      2.0000000000E+01      2.0000000000E+03       p                     1.0000000000E+00      0.0000000000E+00      1          
kr02c59                log                    factor                1.5137446417E+02      2.0000000000E+01      2.0000000000E+03       p                     1.0000000000E+00      0.0000000000E+00      1          
kr02c60                log                    factor                6.8828838022E+02      2.0000000000E+01      2.0000000000E+03       p                     1.0000000000E+00      0.0000000000E+00      1          
kr03c01                log                    factor                4.5337539243E+01      2.0000000000E+01      2.0000000000E+03       p                     1.0000000000E+00      0.0000000000E+00      1          
kr03c02                log                    factor                2.5785259424E+02      2.0000000000E+01      2.0000000000E+03       p                     1.0000000000E+00      0.0000000000E+00      1          
kr03c03                log                    factor                7.9191091217E+02      2.0000000000E+01      2.0000000000E+03       p                     1.0000000000E+00      0.0000000000E+00      1          
kr03c04                log                    factor                5.3606804286E+02      2.0000000000E+01      2.0000000000E+03       p                     1.0000000000E+00      0.0000000000E+00      1          
kr03c05                log                    factor                5.2484361795E+02      2.0000000000E+01      2.0000000000E+03       p                     1.0000000000E+00      0.0000000000E+00      1          
kr03c06                log                    factor                5.0396331906E+02      2.0000000000E+01      2.0000000000E+03       p                     1.0000000000E+00      0.0000000000E+00      1          
kr03c07                log                    factor                2.7575763750E+02      2.0000000000E+01      2.0000000000E+03       p                     1.0000000000E+00      0.0000000000E+00      1          
kr03c08                log                    factor                6.2602281081E+02      2.0000000000E+01      2.0000000000E+03       p                     1.0000000000E+00      0.0000000000E+00      1          
kr03c09                log                    factor                2.1441156462E+02      2.0000000000E+01      2.0000000000E+03       p                     1.0000000000E+00      0.0000000000E+00      1          
kr03c10                log                    factor                6.4901418204E+01      2.0000000000E+01      2.0000000000E+03       p                     1.0000000000E+00      0.0000000000E+00      1          
kr03c11                log                    factor                1.4340010788E+02      2.0000000000E+01      2.0000000000E+03       p                     1.0000000000E+00      0.0000000000E+00      1          
kr03c12                log                    factor                5.6998319733E+02      2.0000000000E+01      2.0000000000E+03       p                     1.0000000000E+00      0.0000000000E+00      1          
kr03c13                log                    factor                3.8824145337E+03      2.0000000000E+01      2.0000000000E+03       p                     1.0000000000E+00      0.0000000000E+00      1          