# Discretization file for MODFLOW, generated by Flopy.
         1         1        10         2         4         2
  0
OPEN/CLOSE                delr.ref               1  (10G15.6) -1  #delr                          
OPEN/CLOSE                delc.ref               1   (1G15.6) -1  #delc                          
OPEN/CLOSE           model_top.ref               1  (10G15.6) -1  #model_top                     
OPEN/CLOSE        botm_Layer_1.ref               1  (10G15.6) -1  #botm Layer 1                  
      1.000000             1  1.000000  SS 
      1.000000             1  1.000000  SS 
