# Output control package file for MODFLOW, generated by Flopy. Output control by words option
HEAD PRINT FORMAT   0
HEAD SAVE FORMAT (20F10.3)           
HEAD SAVE UNIT    51
DRAWDOWN PRINT FORMAT   0
DRAWDOWN SAVE UNIT    52

PERIOD     1 STEP     1
  SAVE HEAD

PERIOD     2 STEP     1
  SAVE HEAD

