# GMG for MODFLOW, generated by Flopy.
1.000e-02        30 1.000e-02      1000
1.000e+00         0         0         0
        0         0 7.500e-01 1.000e-02 1.000e+00
 1.000e+00
