# GHB for MODFLOW, generated by Flopy.
        20         0
        20         0
        1         1       120  0.000000e+00  1.000000e+03
        2         1       120  0.000000e+00  1.000000e+03
        3         1       120  0.000000e+00  1.000000e+03
        4         1       120  0.000000e+00  1.000000e+03
        5         1       120  0.000000e+00  1.000000e+03
        6         1       120  0.000000e+00  1.000000e+03
        7         1       120  0.000000e+00  1.000000e+03
        8         1       120  0.000000e+00  1.000000e+03
        9         1       120  0.000000e+00  1.000000e+03
       10         1       120  0.000000e+00  1.000000e+03
       11         1       120  0.000000e+00  1.000000e+03
       12         1       120  0.000000e+00  1.000000e+03
       13         1       120  0.000000e+00  1.000000e+03
       14         1       120  0.000000e+00  1.000000e+03
       15         1       120  0.000000e+00  1.000000e+03
       16         1       120  0.000000e+00  1.000000e+03
       17         1       120  0.000000e+00  1.000000e+03
       18         1       120  0.000000e+00  1.000000e+03
       19         1       120  0.000000e+00  1.000000e+03
       20         1       120  0.000000e+00  1.000000e+03
        -1         0
