# Discretization file for MODFLOW, generated by Flopy.
        20         1       120         2         4         2
  0  0  0  0  0  0  0  0  0  0  0  0  0  0  0  0  0  0  0  0
        0  1.000e-01           (5G13.0)         -1 DELR(NCOL)
        0  1.000e+00           (5G13.0)         -1 DELC(NROW)
OPEN/CLOSE ref_coarse\top_1.ref            1 (5G13.0)             -1 TOP OF SYSTEM
OPEN/CLOSE ref_coarse\botm_1.ref           1 (5G13.0)             -1 BOTTOM OF LAYER
OPEN/CLOSE ref_coarse\botm_2.ref           1 (5G13.0)             -1 BOTTOM OF LAYER
OPEN/CLOSE ref_coarse\botm_3.ref           1 (5G13.0)             -1 BOTTOM OF LAYER
OPEN/CLOSE ref_coarse\botm_4.ref           1 (5G13.0)             -1 BOTTOM OF LAYER
OPEN/CLOSE ref_coarse\botm_5.ref           1 (5G13.0)             -1 BOTTOM OF LAYER
OPEN/CLOSE ref_coarse\botm_6.ref           1 (5G13.0)             -1 BOTTOM OF LAYER
OPEN/CLOSE ref_coarse\botm_7.ref           1 (5G13.0)             -1 BOTTOM OF LAYER
OPEN/CLOSE ref_coarse\botm_8.ref           1 (5G13.0)             -1 BOTTOM OF LAYER
OPEN/CLOSE ref_coarse\botm_9.ref           1 (5G13.0)             -1 BOTTOM OF LAYER
OPEN/CLOSE ref_coarse\botm_10.ref          1 (5G13.0)             -1 BOTTOM OF LAYER
OPEN/CLOSE ref_coarse\botm_11.ref          1 (5G13.0)             -1 BOTTOM OF LAYER
OPEN/CLOSE ref_coarse\botm_12.ref          1 (5G13.0)             -1 BOTTOM OF LAYER
OPEN/CLOSE ref_coarse\botm_13.ref          1 (5G13.0)             -1 BOTTOM OF LAYER
OPEN/CLOSE ref_coarse\botm_14.ref          1 (5G13.0)             -1 BOTTOM OF LAYER
OPEN/CLOSE ref_coarse\botm_15.ref          1 (5G13.0)             -1 BOTTOM OF LAYER
OPEN/CLOSE ref_coarse\botm_16.ref          1 (5G13.0)             -1 BOTTOM OF LAYER
OPEN/CLOSE ref_coarse\botm_17.ref          1 (5G13.0)             -1 BOTTOM OF LAYER
OPEN/CLOSE ref_coarse\botm_18.ref          1 (5G13.0)             -1 BOTTOM OF LAYER
OPEN/CLOSE ref_coarse\botm_19.ref          1 (5G13.0)             -1 BOTTOM OF LAYER
OPEN/CLOSE ref_coarse\botm_20.ref          1 (5G13.0)             -1 BOTTOM OF LAYER
      1.000000             1  1.000000 SS
      0.330000             1  1.000000 TR
