# Well file for MODFLOW, generated by Flopy.
         6         0
         6         0 # stress period 0
         1         9        16  -6.2881104E+02
         1        11        13  -3.3088763E+02
         1        20        14  -3.3974890E+02
         1        26        10  -6.6289116E+01
         1        29         6  -6.4279480E+01
         1        34        12  -4.4434207E+02
         6         0 # stress period 1
         1         9        16  -8.4183978E+02
         1        11        13  -4.5623230E+02
         1        20        14  -3.6345114E+02
         1        26        10  -9.6739441E+01
         1        29         6  -6.6478119E+01
         1        34        12  -4.9339612E+02
         6         0 # stress period 2
         1         9        16  -8.6684546E+02
         1        11        13  -4.2568542E+02
         1        20        14  -4.3730893E+02
         1        26        10  -8.3073227E+01
         1        29         6  -7.2974792E+01
         1        34        12  -4.4131400E+02
