# RCH for MODFLOW, generated by Flopy.
         3         0
         1        -1 # Stress period 1
CONSTANT                   1.1000000E-04                   #rech_1
         1        -1 # Stress period 2
CONSTANT                   9.3585080E-05                   #rech_2
         1        -1 # Stress period 2
CONSTANT                   9.3585080E-05                   #rech_2
