pcf
* control data
             restart          estimation
       761       708         5         0         2         0
         5         2              single               point         1         0         0            noobsref
   2.000000E+01  -3.000000E+00   3.000000E-01   1.000000E-02        -7       999          lamforgive        noderforgive
   1.000000E+01   1.000000E+01   1.000000E-03         0         0
   1.000000E-01         1   1.100000E+00               noaui          nosenreuse        noboundscale
        -1   1.000000E-02         3         3   1.000000E-02         3   0.000000E+00         1  -1.000000E+00
         0         0         0         0             jcosave          verboserec          jcosaveitn          reisaveitn          parsaveitn          parsaverun
* parameter groups
                   hk              relative    1.000000E-02  0                switch    2.000000E+00             parabolic    1.000000E-05    5.000000E-01               smaller
                rcond              relative    1.000000E-02  0                switch    2.000000E+00             parabolic    1.000000E-05    5.000000E-01               smaller
              welflux              relative    1.000000E-02  0                switch    2.000000E+00             parabolic    1.000000E-05    5.000000E-01               smaller
                  rch              relative    1.000000E-02  0                switch    2.000000E+00             parabolic    1.000000E-05    5.000000E-01               smaller
              storage              relative    1.000000E-02  0                switch    2.000000E+00             parabolic    1.000000E-05    5.000000E-01               smaller
* parameter data
              rcond03                   log                factor    4.904372E+03    4.904372E+02    4.904372E+04                 rcond    1.000000E+00    0.000000E+00          1
                rch_1                   log                factor    1.000000E+00    9.000000E-01    1.100000E+00                   rch    1.000000E+00    0.000000E+00          1
              rcond04                   log                factor    4.904372E+03    4.904372E+02    4.904372E+04                 rcond    1.000000E+00    0.000000E+00          1
             hkr26c02                   log                factor    5.947512E+00    5.947512E-01    5.947512E+01                    hk    1.000000E+00    0.000000E+00          1
                wf5_1                   log                factor    6.220800E+01    5.598720E+01    6.842880E+01               welflux   -1.000000E+00    0.000000E+00          1
             hkr23c04                   log                factor    5.947512E+00    5.947512E-01    5.947512E+01                    hk    1.000000E+00    0.000000E+00          1
             hkr07c12                   log                factor    5.947512E+00    5.947512E-01    5.947512E+01                    hk    1.000000E+00    0.000000E+00          1
             hkr02c09                   log                factor    5.947512E+00    5.947512E-01    5.947512E+01                    hk    1.000000E+00    0.000000E+00          1
              rcond39                   log                factor    4.904372E+03    4.904372E+02    4.904372E+04                 rcond    1.000000E+00    0.000000E+00          1
                rch_2                   log                factor    1.000000E+00    9.000000E-01    1.100000E+00                   rch    1.000000E+00    0.000000E+00          1
                wf1_1                   log                factor    7.084800E+02    6.376320E+02    7.793280E+02               welflux   -1.000000E+00    0.000000E+00          1
             hkr31c05                   log                factor    5.947512E+00    5.947512E-01    5.947512E+01                    hk    1.000000E+00    0.000000E+00          1
              rcond00                   log                factor    4.904372E+03    4.904372E+02    4.904372E+04                 rcond    1.000000E+00    0.000000E+00          1
              rcond01                   log                factor    4.904372E+03    4.904372E+02    4.904372E+04                 rcond    1.000000E+00    0.000000E+00          1
              rcond02                   log                factor    4.904372E+03    4.904372E+02    4.904372E+04                 rcond    1.000000E+00    0.000000E+00          1
             hkr29c19                   log                factor    5.947512E+00    5.947512E-01    5.947512E+01                    hk    1.000000E+00    0.000000E+00          1
             hkr07c04                   log                factor    5.947512E+00    5.947512E-01    5.947512E+01                    hk    1.000000E+00    0.000000E+00          1
              rcond05                   log                factor    4.904372E+03    4.904372E+02    4.904372E+04                 rcond    1.000000E+00    0.000000E+00          1
             hkr27c09                   log                factor    5.947512E+00    5.947512E-01    5.947512E+01                    hk    1.000000E+00    0.000000E+00          1
              rcond06                   log                factor    4.904372E+03    4.904372E+02    4.904372E+04                 rcond    1.000000E+00    0.000000E+00          1
             hkr15c19                   log                factor    5.947512E+00    5.947512E-01    5.947512E+01                    hk    1.000000E+00    0.000000E+00          1
              rcond07                   log                factor    4.904372E+03    4.904372E+02    4.904372E+04                 rcond    1.000000E+00    0.000000E+00          1
             hkr02c15                   log                factor    5.947512E+00    5.947512E-01    5.947512E+01                    hk    1.000000E+00    0.000000E+00          1
              rcond08                   log                factor    4.904372E+03    4.904372E+02    4.904372E+04                 rcond    1.000000E+00    0.000000E+00          1
             hkr06c11                   log                factor    5.947512E+00    5.947512E-01    5.947512E+01                    hk    1.000000E+00    0.000000E+00          1
             hkr00c07                   log                factor    5.947512E+00    5.947512E-01    5.947512E+01                    hk    1.000000E+00    0.000000E+00          1
              rcond09                   log                factor    4.904372E+03    4.904372E+02    4.904372E+04                 rcond    1.000000E+00    0.000000E+00          1
             hkr35c16                   log                factor    5.947512E+00    5.947512E-01    5.947512E+01                    hk    1.000000E+00    0.000000E+00          1
             hkr24c19                   log                factor    5.947512E+00    5.947512E-01    5.947512E+01                    hk    1.000000E+00    0.000000E+00          1
                wf5_2                   log                factor    7.776000E+01    6.998400E+01    8.553600E+01               welflux   -1.000000E+00    0.000000E+00          1
             hkr11c10                   log                factor    5.947512E+00    5.947512E-01    5.947512E+01                    hk    1.000000E+00    0.000000E+00          1
             hkr37c06                   log                factor    5.947512E+00    5.947512E-01    5.947512E+01                    hk    1.000000E+00    0.000000E+00          1
             hkr07c11                   log                factor    5.947512E+00    5.947512E-01    5.947512E+01                    hk    1.000000E+00    0.000000E+00          1
             hkr25c19                   log                factor    5.947512E+00    5.947512E-01    5.947512E+01                    hk    1.000000E+00    0.000000E+00          1
              rcond10                   log                factor    4.904372E+03    4.904372E+02    4.904372E+04                 rcond    1.000000E+00    0.000000E+00          1
             hkr37c07                   log                factor    5.947512E+00    5.947512E-01    5.947512E+01                    hk    1.000000E+00    0.000000E+00          1
             hkr11c11                   log                factor    5.947512E+00    5.947512E-01    5.947512E+01                    hk    1.000000E+00    0.000000E+00          1
             hkr16c18                   log                factor    5.947512E+00    5.947512E-01    5.947512E+01                    hk    1.000000E+00    0.000000E+00          1
              rcond11                   log                factor    4.904372E+03    4.904372E+02    4.904372E+04                 rcond    1.000000E+00    0.000000E+00          1
             hkr05c08                   log                factor    5.947512E+00    5.947512E-01    5.947512E+01                    hk    1.000000E+00    0.000000E+00          1
             hkr04c06                   log                factor    5.947512E+00    5.947512E-01    5.947512E+01                    hk    1.000000E+00    0.000000E+00          1
                wf4_1                   log                factor    7.171200E+01    6.454079E+01    7.888320E+01               welflux   -1.000000E+00    0.000000E+00          1
              rcond12                   log                factor    4.904372E+03    4.904372E+02    4.904372E+04                 rcond    1.000000E+00    0.000000E+00          1
                wf6_2                   log                factor    4.644000E+02    4.179600E+02    5.108400E+02               welflux   -1.000000E+00    0.000000E+00          1
             hkr09c03                   log                factor    5.947512E+00    5.947512E-01    5.947512E+01                    hk    1.000000E+00    0.000000E+00          1
              rcond13                   log                factor    4.904372E+03    4.904372E+02    4.904372E+04                 rcond    1.000000E+00    0.000000E+00          1
             hkr38c05                   log                factor    5.947512E+00    5.947512E-01    5.947512E+01                    hk    1.000000E+00    0.000000E+00          1
              rcond14                   log                factor    4.904372E+03    4.904372E+02    4.904372E+04                 rcond    1.000000E+00    0.000000E+00          1
             hkr27c16                   log                factor    5.947512E+00    5.947512E-01    5.947512E+01                    hk    1.000000E+00    0.000000E+00          1
              rcond15                   log                factor    4.904372E+03    4.904372E+02    4.904372E+04                 rcond    1.000000E+00    0.000000E+00          1
             hkr07c17                   log                factor    5.947512E+00    5.947512E-01    5.947512E+01                    hk    1.000000E+00    0.000000E+00          1
              rcond16                   log                factor    4.904372E+03    4.904372E+02    4.904372E+04                 rcond    1.000000E+00    0.000000E+00          1
             hkr27c14                   log                factor    5.947512E+00    5.947512E-01    5.947512E+01                    hk    1.000000E+00    0.000000E+00          1
              rcond17                   log                factor    4.904372E+03    4.904372E+02    4.904372E+04                 rcond    1.000000E+00    0.000000E+00          1
              rcond18                   log                factor    4.904372E+03    4.904372E+02    4.904372E+04                 rcond    1.000000E+00    0.000000E+00          1
              rcond19                   log                factor    4.904372E+03    4.904372E+02    4.904372E+04                 rcond    1.000000E+00    0.000000E+00          1
             hkr00c04                   log                factor    5.947512E+00    5.947512E-01    5.947512E+01                    hk    1.000000E+00    0.000000E+00          1
             hkr14c10                   log                factor    5.947512E+00    5.947512E-01    5.947512E+01                    hk    1.000000E+00    0.000000E+00          1
              rcond20                   log                factor    4.904372E+03    4.904372E+02    4.904372E+04                 rcond    1.000000E+00    0.000000E+00          1
              rcond21                   log                factor    4.904372E+03    4.904372E+02    4.904372E+04                 rcond    1.000000E+00    0.000000E+00          1
             hkr28c17                   log                factor    5.947512E+00    5.947512E-01    5.947512E+01                    hk    1.000000E+00    0.000000E+00          1
             hkr00c06                   log                factor    5.947512E+00    5.947512E-01    5.947512E+01                    hk    1.000000E+00    0.000000E+00          1
              rcond22                   log                factor    4.904372E+03    4.904372E+02    4.904372E+04                 rcond    1.000000E+00    0.000000E+00          1
                wf3_2                   log                factor    4.212000E+02    3.790800E+02    4.633200E+02               welflux   -1.000000E+00    0.000000E+00          1
             hkr32c17                   log                factor    5.947512E+00    5.947512E-01    5.947512E+01                    hk    1.000000E+00    0.000000E+00          1
             hkr03c08                   log                factor    5.947512E+00    5.947512E-01    5.947512E+01                    hk    1.000000E+00    0.000000E+00          1
             hkr12c10                   log                factor    5.947512E+00    5.947512E-01    5.947512E+01                    hk    1.000000E+00    0.000000E+00          1
                   ss                   log                factor    1.000000E-05    1.000000E-06    1.000000E-04               storage    1.000000E+00    0.000000E+00          1
             hkr07c00                   log                factor    5.947512E+00    5.947512E-01    5.947512E+01                    hk    1.000000E+00    0.000000E+00          1
              rcond23                   log                factor    4.904372E+03    4.904372E+02    4.904372E+04                 rcond    1.000000E+00    0.000000E+00          1
             hkr15c03                   log                factor    5.947512E+00    5.947512E-01    5.947512E+01                    hk    1.000000E+00    0.000000E+00          1
                wf4_2                   log                factor    8.964000E+01    8.067600E+01    9.860400E+01               welflux   -1.000000E+00    0.000000E+00          1
              rcond24                   log                factor    4.904372E+03    4.904372E+02    4.904372E+04                 rcond    1.000000E+00    0.000000E+00          1
             hkr00c01                   log                factor    5.947512E+00    5.947512E-01    5.947512E+01                    hk    1.000000E+00    0.000000E+00          1
                wf6_1                   log                factor    3.715200E+02    3.343680E+02    4.086720E+02               welflux   -1.000000E+00    0.000000E+00          1
             hkr23c14                   log                factor    5.947512E+00    5.947512E-01    5.947512E+01                    hk    1.000000E+00    0.000000E+00          1
              rcond25                   log                factor    4.904372E+03    4.904372E+02    4.904372E+04                 rcond    1.000000E+00    0.000000E+00          1
             hkr10c11                   log                factor    5.947512E+00    5.947512E-01    5.947512E+01                    hk    1.000000E+00    0.000000E+00          1
             hkr30c06                   log                factor    5.947512E+00    5.947512E-01    5.947512E+01                    hk    1.000000E+00    0.000000E+00          1
             hkr00c02                   log                factor    5.947512E+00    5.947512E-01    5.947512E+01                    hk    1.000000E+00    0.000000E+00          1
             hkr21c01                   log                factor    5.947512E+00    5.947512E-01    5.947512E+01                    hk    1.000000E+00    0.000000E+00          1
             hkr31c09                   log                factor    5.947512E+00    5.947512E-01    5.947512E+01                    hk    1.000000E+00    0.000000E+00          1
              rcond26                   log                factor    4.904372E+03    4.904372E+02    4.904372E+04                 rcond    1.000000E+00    0.000000E+00          1
             hkr10c16                   log                factor    5.947512E+00    5.947512E-01    5.947512E+01                    hk    1.000000E+00    0.000000E+00          1
             hkr09c10                   log                factor    5.947512E+00    5.947512E-01    5.947512E+01                    hk    1.000000E+00    0.000000E+00          1
             hkr28c12                   log                factor    5.947512E+00    5.947512E-01    5.947512E+01                    hk    1.000000E+00    0.000000E+00          1
             hkr19c18                   log                factor    5.947512E+00    5.947512E-01    5.947512E+01                    hk    1.000000E+00    0.000000E+00          1
             hkr00c03                   log                factor    5.947512E+00    5.947512E-01    5.947512E+01                    hk    1.000000E+00    0.000000E+00          1
             hkr18c08                   log                factor    5.947512E+00    5.947512E-01    5.947512E+01                    hk    1.000000E+00    0.000000E+00          1
             hkr29c11                   log                factor    5.947512E+00    5.947512E-01    5.947512E+01                    hk    1.000000E+00    0.000000E+00          1
              rcond27                   log                factor    4.904372E+03    4.904372E+02    4.904372E+04                 rcond    1.000000E+00    0.000000E+00          1
             hkr01c14                   log                factor    5.947512E+00    5.947512E-01    5.947512E+01                    hk    1.000000E+00    0.000000E+00          1
             hkr08c01                   log                factor    5.947512E+00    5.947512E-01    5.947512E+01                    hk    1.000000E+00    0.000000E+00          1
             hkr18c03                   log                factor    5.947512E+00    5.947512E-01    5.947512E+01                    hk    1.000000E+00    0.000000E+00          1
              rcond28                   log                factor    4.904372E+03    4.904372E+02    4.904372E+04                 rcond    1.000000E+00    0.000000E+00          1
             hkr01c15                   log                factor    5.947512E+00    5.947512E-01    5.947512E+01                    hk    1.000000E+00    0.000000E+00          1
              rcond29                   log                factor    4.904372E+03    4.904372E+02    4.904372E+04                 rcond    1.000000E+00    0.000000E+00          1
              rcond30                   log                factor    4.904372E+03    4.904372E+02    4.904372E+04                 rcond    1.000000E+00    0.000000E+00          1
             hkr23c12                   log                factor    5.947512E+00    5.947512E-01    5.947512E+01                    hk    1.000000E+00    0.000000E+00          1
              rcond31                   log                factor    4.904372E+03    4.904372E+02    4.904372E+04                 rcond    1.000000E+00    0.000000E+00          1
             hkr16c16                   log                factor    5.947512E+00    5.947512E-01    5.947512E+01                    hk    1.000000E+00    0.000000E+00          1
              rcond32                   log                factor    4.904372E+03    4.904372E+02    4.904372E+04                 rcond    1.000000E+00    0.000000E+00          1
              rcond33                   log                factor    4.904372E+03    4.904372E+02    4.904372E+04                 rcond    1.000000E+00    0.000000E+00          1
             hkr07c13                   log                factor    5.947512E+00    5.947512E-01    5.947512E+01                    hk    1.000000E+00    0.000000E+00          1
             hkr33c09                   log                factor    5.947512E+00    5.947512E-01    5.947512E+01                    hk    1.000000E+00    0.000000E+00          1
              rcond34                   log                factor    4.904372E+03    4.904372E+02    4.904372E+04                 rcond    1.000000E+00    0.000000E+00          1
              rcond35                   log                factor    4.904372E+03    4.904372E+02    4.904372E+04                 rcond    1.000000E+00    0.000000E+00          1
                wf2_1                   log                factor    3.542400E+02    3.188160E+02    3.896640E+02               welflux   -1.000000E+00    0.000000E+00          1
             hkr12c09                   log                factor    5.947512E+00    5.947512E-01    5.947512E+01                    hk    1.000000E+00    0.000000E+00          1
             hkr08c08                   log                factor    5.947512E+00    5.947512E-01    5.947512E+01                    hk    1.000000E+00    0.000000E+00          1
              rcond36                   log                factor    4.904372E+03    4.904372E+02    4.904372E+04                 rcond    1.000000E+00    0.000000E+00          1
             hkr28c15                   log                factor    5.947512E+00    5.947512E-01    5.947512E+01                    hk    1.000000E+00    0.000000E+00          1
              rcond37                   log                factor    4.904372E+03    4.904372E+02    4.904372E+04                 rcond    1.000000E+00    0.000000E+00          1
             hkr06c15                   log                factor    5.947512E+00    5.947512E-01    5.947512E+01                    hk    1.000000E+00    0.000000E+00          1
             hkr38c14                   log                factor    5.947512E+00    5.947512E-01    5.947512E+01                    hk    1.000000E+00    0.000000E+00          1
              rcond38                   log                factor    4.904372E+03    4.904372E+02    4.904372E+04                 rcond    1.000000E+00    0.000000E+00          1
             hkr26c16                   log                factor    5.947512E+00    5.947512E-01    5.947512E+01                    hk    1.000000E+00    0.000000E+00          1
             hkr15c11                   log                factor    5.947512E+00    5.947512E-01    5.947512E+01                    hk    1.000000E+00    0.000000E+00          1
             hkr33c14                   log                factor    5.947512E+00    5.947512E-01    5.947512E+01                    hk    1.000000E+00    0.000000E+00          1
                wf1_2                   log                factor    8.856000E+02    7.970400E+02    9.741600E+02               welflux   -1.000000E+00    0.000000E+00          1
             hkr30c05                   log                factor    5.947512E+00    5.947512E-01    5.947512E+01                    hk    1.000000E+00    0.000000E+00          1
                   sy                   log                factor    9.999999E-03    9.999999E-04    9.999999E-02               storage    1.000000E+00    0.000000E+00          1
             hkr09c00                   log                factor    5.947512E+00    5.947512E-01    5.947512E+01                    hk    1.000000E+00    0.000000E+00          1
             hkr00c08                   log                factor    5.947512E+00    5.947512E-01    5.947512E+01                    hk    1.000000E+00    0.000000E+00          1
             hkr34c19                   log                factor    5.947512E+00    5.947512E-01    5.947512E+01                    hk    1.000000E+00    0.000000E+00          1
                wf3_1                   log                factor    3.369600E+02    3.032640E+02    3.706560E+02               welflux   -1.000000E+00    0.000000E+00          1
             hkr30c11                   log                factor    5.947512E+00    5.947512E-01    5.947512E+01                    hk    1.000000E+00    0.000000E+00          1
                wf2_2                   log                factor    4.428000E+02    3.985200E+02    4.870800E+02               welflux   -1.000000E+00    0.000000E+00          1
             hkr06c16                   log                factor    5.947512E+00    5.947512E-01    5.947512E+01                    hk    1.000000E+00    0.000000E+00          1
             hkr20c19                   log                factor    5.947512E+00    5.947512E-01    5.947512E+01                    hk    1.000000E+00    0.000000E+00          1
             hkr00c00                   log                factor    5.947512E+00    5.947512E-01    5.947512E+01                    hk    1.000000E+00    0.000000E+00          1
             hkr30c01                   log                factor    5.947512E+00    5.947512E-01    5.947512E+01                    hk    1.000000E+00    0.000000E+00          1
             hkr26c12                   log                factor    5.947512E+00    5.947512E-01    5.947512E+01                    hk    1.000000E+00    0.000000E+00          1
             hkr00c05                   log                factor    5.947512E+00    5.947512E-01    5.947512E+01                    hk    1.000000E+00    0.000000E+00          1
             hkr31c02                   log                factor    5.947512E+00    5.947512E-01    5.947512E+01                    hk    1.000000E+00    0.000000E+00          1
             hkr00c09                   log                factor    5.947512E+00    5.947512E-01    5.947512E+01                    hk    1.000000E+00    0.000000E+00          1
             hkr15c13                   log                factor    5.947512E+00    5.947512E-01    5.947512E+01                    hk    1.000000E+00    0.000000E+00          1
             hkr00c10                   log                factor    5.947512E+00    5.947512E-01    5.947512E+01                    hk    1.000000E+00    0.000000E+00          1
             hkr00c11                   log                factor    5.947512E+00    5.947512E-01    5.947512E+01                    hk    1.000000E+00    0.000000E+00          1
             hkr00c12                   log                factor    5.947512E+00    5.947512E-01    5.947512E+01                    hk    1.000000E+00    0.000000E+00          1
             hkr00c13                   log                factor    5.947512E+00    5.947512E-01    5.947512E+01                    hk    1.000000E+00    0.000000E+00          1
             hkr24c18                   log                factor    5.947512E+00    5.947512E-01    5.947512E+01                    hk    1.000000E+00    0.000000E+00          1
             hkr35c17                   log                factor    5.947512E+00    5.947512E-01    5.947512E+01                    hk    1.000000E+00    0.000000E+00          1
             hkr18c10                   log                factor    5.947512E+00    5.947512E-01    5.947512E+01                    hk    1.000000E+00    0.000000E+00          1
             hkr31c04                   log                factor    5.947512E+00    5.947512E-01    5.947512E+01                    hk    1.000000E+00    0.000000E+00          1
             hkr00c14                   log                factor    5.947512E+00    5.947512E-01    5.947512E+01                    hk    1.000000E+00    0.000000E+00          1
             hkr19c03                   log                factor    5.947512E+00    5.947512E-01    5.947512E+01                    hk    1.000000E+00    0.000000E+00          1
             hkr16c08                   log                factor    5.947512E+00    5.947512E-01    5.947512E+01                    hk    1.000000E+00    0.000000E+00          1
             hkr17c10                   log                factor    5.947512E+00    5.947512E-01    5.947512E+01                    hk    1.000000E+00    0.000000E+00          1
             hkr00c15                   log                factor    5.947512E+00    5.947512E-01    5.947512E+01                    hk    1.000000E+00    0.000000E+00          1
             hkr05c09                   log                factor    5.947512E+00    5.947512E-01    5.947512E+01                    hk    1.000000E+00    0.000000E+00          1
             hkr00c16                   log                factor    5.947512E+00    5.947512E-01    5.947512E+01                    hk    1.000000E+00    0.000000E+00          1
             hkr00c17                   log                factor    5.947512E+00    5.947512E-01    5.947512E+01                    hk    1.000000E+00    0.000000E+00          1
             hkr06c02                   log                factor    5.947512E+00    5.947512E-01    5.947512E+01                    hk    1.000000E+00    0.000000E+00          1
             hkr00c18                   log                factor    5.947512E+00    5.947512E-01    5.947512E+01                    hk    1.000000E+00    0.000000E+00          1
             hkr24c16                   log                factor    5.947512E+00    5.947512E-01    5.947512E+01                    hk    1.000000E+00    0.000000E+00          1
             hkr00c19                   log                factor    5.947512E+00    5.947512E-01    5.947512E+01                    hk    1.000000E+00    0.000000E+00          1
             hkr29c15                   log                factor    5.947512E+00    5.947512E-01    5.947512E+01                    hk    1.000000E+00    0.000000E+00          1