The model files in the directory are used to generate the requisite files for the freyberg pyemu demonstration.  The model was solved with MODFLOW-2005.  