# PCG for MODFLOW, generated by Flopy.
50 5 1 0
1e-08 1.0 1.0 0 1 0 1.0 
