ptf ~
# Well file for MODFLOW, generated by Flopy.
         7         0
         7         0 # stress period 0
         open/close ref/WEL_0000.~    Q1    ~
