pcf
* control data
             restart          estimation
       606       600         4         1         3         0
         3         1              single               point         1         0         0          noobsreref
   2.000000E+01  -3.000000E+00   3.000000E-01   1.000000E-02        -7       999          lamforgive        noderforgive
   1.000000E+01   1.000000E+01   1.000000E-03         0         0
   1.000000E-01         1   1.100000E+00               noaui          nosenreuse        noboundscale
        -1   1.000000E-02         3         3   1.000000E-02         3   0.000000E+00         1  -1.000000E+00
         0         0         0         0             jcosave          verboserec          jcosaveitn          reisaveitn          parsaveitn        noparsaverun
* singular value decomposition
         1
       606    1.000000E-06
1 1 1
* parameter groups
h                       relative              1.0000000000E-02       0  switch                2.0000000000E+00       parabolic             1.0000000000E-05      5.0000000000E-01       smaller              
q                       absolute              -1.0000000000E+04      0  switch                2.0000000000E+00       parabolic             1.0000000000E-05      5.0000000000E-01       smaller              
u                       relative              1.0000000000E-02       0  switch                2.0000000000E+00       parabolic             1.0000000000E-05      5.0000000000E-01       smaller              
d                       relative              1.0000000000E-02       0  switch                2.0000000000E+00       parabolic             1.0000000000E-05      5.0000000000E-01       smaller
* parameter data
q1                     none                   factor                0.0000000000E+00      0.0000000000E+00      2.0000000000E+04       q                     -1.0000000000E+00     0.0000000000E+00      1          
q2                     none                   factor                0.0000000000E+00      0.0000000000E+00      2.0000000000E+04       q                     -1.0000000000E+00     0.0000000000E+00      1          
q3                     none                   factor                0.0000000000E+00      0.0000000000E+00      2.0000000000E+04       q                     -1.0000000000E+00     0.0000000000E+00      1          
q4                     none                   factor                0.0000000000E+00      0.0000000000E+00      2.0000000000E+04       q                     -1.0000000000E+00     0.0000000000E+00      1          
hk_00_00               none                   factor                5.0000000000E+01      5.0000000000E+00      5.0000000000E+02       h                     1.0000000000E+00      0.0000000000E+00      1          
hk_00_01               none                   factor                5.0000000000E+01      5.0000000000E+00      5.0000000000E+02       h                     1.0000000000E+00      0.0000000000E+00      1          
hk_00_02               none                   factor                5.0000000000E+01      5.0000000000E+00      5.0000000000E+02       h                     1.0000000000E+00      0.0000000000E+00      1          
hk_00_03               none                   factor                5.0000000000E+01      5.0000000000E+00      5.0000000000E+02       h                     1.0000000000E+00      0.0000000000E+00      1          
hk_00_04               none                   factor                5.0000000000E+01      5.0000000000E+00      5.0000000000E+02       h                     1.0000000000E+00      0.0000000000E+00      1          
hk_00_05               none                   factor                5.0000000000E+01      5.0000000000E+00      5.0000000000E+02       h                     1.0000000000E+00      0.0000000000E+00      1          
hk_00_06               none                   factor                5.0000000000E+01      5.0000000000E+00      5.0000000000E+02       h                     1.0000000000E+00      0.0000000000E+00      1          
hk_00_07               none                   factor                5.0000000000E+01      5.0000000000E+00      5.0000000000E+02       h                     1.0000000000E+00      0.0000000000E+00      1          
hk_00_08               none                   factor                5.0000000000E+01      5.0000000000E+00      5.0000000000E+02       h                     1.0000000000E+00      0.0000000000E+00      1          
hk_00_09               none                   factor                5.0000000000E+01      5.0000000000E+00      5.0000000000E+02       h                     1.0000000000E+00      0.0000000000E+00      1          
hk_00_10               none                   factor                5.0000000000E+01      5.0000000000E+00      5.0000000000E+02       h                     1.0000000000E+00      0.0000000000E+00      1          
hk_00_11               none                   factor                5.0000000000E+01      5.0000000000E+00      5.0000000000E+02       h                     1.0000000000E+00      0.0000000000E+00      1          
hk_00_12               none                   factor                5.0000000000E+01      5.0000000000E+00      5.0000000000E+02       h                     1.0000000000E+00      0.0000000000E+00      1          
hk_00_13               none                   factor                5.0000000000E+01      5.0000000000E+00      5.0000000000E+02       h                     1.0000000000E+00      0.0000000000E+00      1          
hk_00_14               none                   factor                5.0000000000E+01      5.0000000000E+00      5.0000000000E+02       h                     1.0000000000E+00      0.0000000000E+00      1          
hk_00_15               none                   factor                5.0000000000E+01      5.0000000000E+00      5.0000000000E+02       h                     1.0000000000E+00      0.0000000000E+00      1          
hk_00_16               none                   factor                5.0000000000E+01      5.0000000000E+00      5.0000000000E+02       h                     1.0000000000E+00      0.0000000000E+00      1          
hk_00_17               none                   factor                5.0000000000E+01      5.0000000000E+00      5.0000000000E+02       h                     1.0000000000E+00      0.0000000000E+00      1          
hk_00_18               none                   factor                5.0000000000E+01      5.0000000000E+00      5.0000000000E+02       h                     1.0000000000E+00      0.0000000000E+00      1          
hk_00_19               none                   factor                5.0000000000E+01      5.0000000000E+00      5.0000000000E+02       h                     1.0000000000E+00      0.0000000000E+00      1          
hk_00_20               none                   factor                5.0000000000E+01      5.0000000000E+00      5.0000000000E+02       h                     1.0000000000E+00      0.0000000000E+00      1          
hk_00_21               none                   factor                5.0000000000E+01      5.0000000000E+00      5.0000000000E+02       h                     1.0000000000E+00      0.0000000000E+00      1          
hk_00_22               none                   factor                5.0000000000E+01      5.0000000000E+00      5.0000000000E+02       h                     1.0000000000E+00      0.0000000000E+00      1          
hk_00_23               none                   factor                5.0000000000E+01      5.0000000000E+00      5.0000000000E+02       h                     1.0000000000E+00      0.0000000000E+00      1          
hk_00_24               none                   factor                5.0000000000E+01      5.0000000000E+00      5.0000000000E+02       h                     1.0000000000E+00      0.0000000000E+00      1          
hk_00_25               none                   factor                5.0000000000E+01      5.0000000000E+00      5.0000000000E+02       h                     1.0000000000E+00      0.0000000000E+00      1          
hk_00_26               none                   factor                5.0000000000E+01      5.0000000000E+00      5.0000000000E+02       h                     1.0000000000E+00      0.0000000000E+00      1          
hk_00_27               none                   factor                5.0000000000E+01      5.0000000000E+00      5.0000000000E+02       h                     1.0000000000E+00      0.0000000000E+00      1          
hk_00_28               none                   factor                5.0000000000E+01      5.0000000000E+00      5.0000000000E+02       h                     1.0000000000E+00      0.0000000000E+00      1          
hk_00_29               none                   factor                5.0000000000E+01      5.0000000000E+00      5.0000000000E+02       h                     1.0000000000E+00      0.0000000000E+00      1          
hk_01_00               none                   factor                5.0000000000E+01      5.0000000000E+00      5.0000000000E+02       h                     1.0000000000E+00      0.0000000000E+00      1          
hk_01_01               none                   factor                5.0000000000E+01      5.0000000000E+00      5.0000000000E+02       h                     1.0000000000E+00      0.0000000000E+00      1          
hk_01_02               none                   factor                5.0000000000E+01      5.0000000000E+00      5.0000000000E+02       h                     1.0000000000E+00      0.0000000000E+00      1          
hk_01_03               none                   factor                5.0000000000E+01      5.0000000000E+00      5.0000000000E+02       h                     1.0000000000E+00      0.0000000000E+00      1          
hk_01_04               none                   factor                5.0000000000E+01      5.0000000000E+00      5.0000000000E+02       h                     1.0000000000E+00      0.0000000000E+00      1          
hk_01_05               none                   factor                5.0000000000E+01      5.0000000000E+00      5.0000000000E+02       h                     1.0000000000E+00      0.0000000000E+00      1          
hk_01_06               none                   factor                5.0000000000E+01      5.0000000000E+00      5.0000000000E+02       h                     1.0000000000E+00      0.0000000000E+00      1          
hk_01_07               none                   factor                5.0000000000E+01      5.0000000000E+00      5.0000000000E+02       h                     1.0000000000E+00      0.0000000000E+00      1          
hk_01_08               none                   factor                5.0000000000E+01      5.0000000000E+00      5.0000000000E+02       h                     1.0000000000E+00      0.0000000000E+00      1          
hk_01_09               none                   factor                5.0000000000E+01      5.0000000000E+00      5.0000000000E+02       h                     1.0000000000E+00      0.0000000000E+00      1          
hk_01_10               none                   factor                5.0000000000E+01      5.0000000000E+00      5.0000000000E+02       h                     1.0000000000E+00      0.0000000000E+00      1          
hk_01_11               none                   factor                5.0000000000E+01      5.0000000000E+00      5.0000000000E+02       h                     1.0000000000E+00      0.0000000000E+00      1          
hk_01_12               none                   factor                5.0000000000E+01      5.0000000000E+00      5.0000000000E+02       h                     1.0000000000E+00      0.0000000000E+00      1          
hk_01_13               none                   factor                5.0000000000E+01      5.0000000000E+00      5.0000000000E+02       h                     1.0000000000E+00      0.0000000000E+00      1          
hk_01_14               none                   factor                5.0000000000E+01      5.0000000000E+00      5.0000000000E+02       h                     1.0000000000E+00      0.0000000000E+00      1          
hk_01_15               none                   factor                5.0000000000E+01      5.0000000000E+00      5.0000000000E+02       h                     1.0000000000E+00      0.0000000000E+00      1          
hk_01_16               none                   factor                5.0000000000E+01      5.0000000000E+00      5.0000000000E+02       h                     1.0000000000E+00      0.0000000000E+00      1          
hk_01_17               none                   factor                5.0000000000E+01      5.0000000000E+00      5.0000000000E+02       h                     1.0000000000E+00      0.0000000000E+00      1          
hk_01_18               none                   factor                5.0000000000E+01      5.0000000000E+00      5.0000000000E+02       h                     1.0000000000E+00      0.0000000000E+00      1          
hk_01_19               none                   factor                5.0000000000E+01      5.0000000000E+00      5.0000000000E+02       h                     1.0000000000E+00      0.0000000000E+00      1          
hk_01_20               none                   factor                5.0000000000E+01      5.0000000000E+00      5.0000000000E+02       h                     1.0000000000E+00      0.0000000000E+00      1          
hk_01_21               none                   factor                5.0000000000E+01      5.0000000000E+00      5.0000000000E+02       h                     1.0000000000E+00      0.0000000000E+00      1          
hk_01_22               none                   factor                5.0000000000E+01      5.0000000000E+00      5.0000000000E+02       h                     1.0000000000E+00      0.0000000000E+00      1          
hk_01_23               none                   factor                5.0000000000E+01      5.0000000000E+00      5.0000000000E+02       h                     1.0000000000E+00      0.0000000000E+00      1          
hk_01_24               none                   factor                5.0000000000E+01      5.0000000000E+00      5.0000000000E+02       h                     1.0000000000E+00      0.0000000000E+00      1          
hk_01_25               none                   factor                5.0000000000E+01      5.0000000000E+00      5.0000000000E+02       h                     1.0000000000E+00      0.0000000000E+00      1          
hk_01_26               none                   factor                5.0000000000E+01      5.0000000000E+00      5.0000000000E+02       h                     1.0000000000E+00      0.0000000000E+00      1          
hk_01_27               none                   factor                5.0000000000E+01      5.0000000000E+00      5.0000000000E+02       h                     1.0000000000E+00      0.0000000000E+00      1          
hk_01_28               none                   factor                5.0000000000E+01      5.0000000000E+00      5.0000000000E+02       h                     1.0000000000E+00      0.0000000000E+00      1          
hk_01_29               none                   factor                5.0000000000E+01      5.0000000000E+00      5.0000000000E+02       h                     1.0000000000E+00      0.0000000000E+00      1          
hk_02_00               none                   factor                5.0000000000E+01      5.0000000000E+00      5.0000000000E+02       h                     1.0000000000E+00      0.0000000000E+00      1          
hk_02_01               none                   factor                5.0000000000E+01      5.0000000000E+00      5.0000000000E+02       h                     1.0000000000E+00      0.0000000000E+00      1          
hk_02_02               none                   factor                5.0000000000E+01      5.0000000000E+00      5.0000000000E+02       h                     1.0000000000E+00      0.0000000000E+00      1          
hk_02_03               none                   factor                5.0000000000E+01      5.0000000000E+00      5.0000000000E+02       h                     1.0000000000E+00      0.0000000000E+00      1          
hk_02_04               none                   factor                5.0000000000E+01      5.0000000000E+00      5.0000000000E+02       h                     1.0000000000E+00      0.0000000000E+00      1          
hk_02_05               none                   factor                5.0000000000E+01      5.0000000000E+00      5.0000000000E+02       h                     1.0000000000E+00      0.0000000000E+00      1          
hk_02_06               none                   factor                5.0000000000E+01      5.0000000000E+00      5.0000000000E+02       h                     1.0000000000E+00      0.0000000000E+00      1          
hk_02_07               none                   factor                5.0000000000E+01      5.0000000000E+00      5.0000000000E+02       h                     1.0000000000E+00      0.0000000000E+00      1          
hk_02_08               none                   factor                5.0000000000E+01      5.0000000000E+00      5.0000000000E+02       h                     1.0000000000E+00      0.0000000000E+00      1          
hk_02_09               none                   factor                5.0000000000E+01      5.0000000000E+00      5.0000000000E+02       h                     1.0000000000E+00      0.0000000000E+00      1          
hk_02_10               none                   factor                5.0000000000E+01      5.0000000000E+00      5.0000000000E+02       h                     1.0000000000E+00      0.0000000000E+00      1          
hk_02_11               none                   factor                5.0000000000E+01      5.0000000000E+00      5.0000000000E+02       h                     1.0000000000E+00      0.0000000000E+00      1          
hk_02_12               none                   factor                5.0000000000E+01      5.0000000000E+00      5.0000000000E+02       h                     1.0000000000E+00      0.0000000000E+00      1          
hk_02_13               none                   factor                5.0000000000E+01      5.0000000000E+00      5.0000000000E+02       h                     1.0000000000E+00      0.0000000000E+00      1          
hk_02_14               none                   factor                5.0000000000E+01      5.0000000000E+00      5.0000000000E+02       h                     1.0000000000E+00      0.0000000000E+00      1          
hk_02_15               none                   factor                5.0000000000E+01      5.0000000000E+00      5.0000000000E+02       h                     1.0000000000E+00      0.0000000000E+00      1          
hk_02_16               none                   factor                5.0000000000E+01      5.0000000000E+00      5.0000000000E+02       h                     1.0000000000E+00      0.0000000000E+00      1          
hk_02_17               none                   factor                5.0000000000E+01      5.0000000000E+00      5.0000000000E+02       h                     1.0000000000E+00      0.0000000000E+00      1          
hk_02_18               none                   factor                5.0000000000E+01      5.0000000000E+00      5.0000000000E+02       h                     1.0000000000E+00      0.0000000000E+00      1          
hk_02_19               none                   factor                5.0000000000E+01      5.0000000000E+00      5.0000000000E+02       h                     1.0000000000E+00      0.0000000000E+00      1          
hk_02_20               none                   factor                5.0000000000E+01      5.0000000000E+00      5.0000000000E+02       h                     1.0000000000E+00      0.0000000000E+00      1          
hk_02_21               none                   factor                5.0000000000E+01      5.0000000000E+00      5.0000000000E+02       h                     1.0000000000E+00      0.0000000000E+00      1          
hk_02_22               none                   factor                5.0000000000E+01      5.0000000000E+00      5.0000000000E+02       h                     1.0000000000E+00      0.0000000000E+00      1          
hk_02_23               none                   factor                5.0000000000E+01      5.0000000000E+00      5.0000000000E+02       h                     1.0000000000E+00      0.0000000000E+00      1          
hk_02_24               none                   factor                5.0000000000E+01      5.0000000000E+00      5.0000000000E+02       h                     1.0000000000E+00      0.0000000000E+00      1          
hk_02_25               none                   factor                5.0000000000E+01      5.0000000000E+00      5.0000000000E+02       h                     1.0000000000E+00      0.0000000000E+00      1          
hk_02_26               none                   factor                5.0000000000E+01      5.0000000000E+00      5.0000000000E+02       h                     1.0000000000E+00      0.0000000000E+00      1          
hk_02_27               none                   factor                5.0000000000E+01      5.0000000000E+00      5.0000000000E+02       h                     1.0000000000E+00      0.0000000000E+00      1          
hk_02_28               none                   factor                5.0000000000E+01      5.0000000000E+00      5.0000000000E+02       h                     1.0000000000E+00      0.0000000000E+00      1          
hk_02_29               none                   factor                5.0000000000E+01      5.0000000000E+00      5.0000000000E+02       h                     1.0000000000E+00      0.0000000000E+00      1          
hk_03_00               none                   factor                5.0000000000E+01      5.0000000000E+00      5.0000000000E+02       h                     1.0000000000E+00      0.0000000000E+00      1          
hk_03_01               none                   factor                5.0000000000E+01      5.0000000000E+00      5.0000000000E+02       h                     1.0000000000E+00      0.0000000000E+00      1          
hk_03_02               none                   factor                5.0000000000E+01      5.0000000000E+00      5.0000000000E+02       h                     1.0000000000E+00      0.0000000000E+00      1          
hk_03_03               none                   factor                5.0000000000E+01      5.0000000000E+00      5.0000000000E+02       h                     1.0000000000E+00      0.0000000000E+00      1          
hk_03_04               none                   factor                5.0000000000E+01      5.0000000000E+00      5.0000000000E+02       h                     1.0000000000E+00      0.0000000000E+00      1          
hk_03_05               none                   factor                5.0000000000E+01      5.0000000000E+00      5.0000000000E+02       h                     1.0000000000E+00      0.0000000000E+00      1          
hk_03_06               none                   factor                5.0000000000E+01      5.0000000000E+00      5.0000000000E+02       h                     1.0000000000E+00      0.0000000000E+00      1          
hk_03_07               none                   factor                5.0000000000E+01      5.0000000000E+00      5.0000000000E+02       h                     1.0000000000E+00      0.0000000000E+00      1          
hk_03_08               none                   factor                5.0000000000E+01      5.0000000000E+00      5.0000000000E+02       h                     1.0000000000E+00      0.0000000000E+00      1          
hk_03_09               none                   factor                5.0000000000E+01      5.0000000000E+00      5.0000000000E+02       h                     1.0000000000E+00      0.0000000000E+00      1          
hk_03_10               none                   factor                5.0000000000E+01      5.0000000000E+00      5.0000000000E+02       h                     1.0000000000E+00      0.0000000000E+00      1          
hk_03_11               none                   factor                5.0000000000E+01      5.0000000000E+00      5.0000000000E+02       h                     1.0000000000E+00      0.0000000000E+00      1          
hk_03_12               none                   factor                5.0000000000E+01      5.0000000000E+00      5.0000000000E+02       h                     1.0000000000E+00      0.0000000000E+00      1          
hk_03_13               none                   factor                5.0000000000E+01      5.0000000000E+00      5.0000000000E+02       h                     1.0000000000E+00      0.0000000000E+00      1          
hk_03_14               none                   factor                5.0000000000E+01      5.0000000000E+00      5.0000000000E+02       h                     1.0000000000E+00      0.0000000000E+00      1          
hk_03_15               none                   factor                5.0000000000E+01      5.0000000000E+00      5.0000000000E+02       h                     1.0000000000E+00      0.0000000000E+00      1          
hk_03_16               none                   factor                5.0000000000E+01      5.0000000000E+00      5.0000000000E+02       h                     1.0000000000E+00      0.0000000000E+00      1          
hk_03_17               none                   factor                5.0000000000E+01      5.0000000000E+00      5.0000000000E+02       h                     1.0000000000E+00      0.0000000000E+00      1          
hk_03_18               none                   factor                5.0000000000E+01      5.0000000000E+00      5.0000000000E+02       h                     1.0000000000E+00      0.0000000000E+00      1          
hk_03_19               none                   factor                5.0000000000E+01      5.0000000000E+00      5.0000000000E+02       h                     1.0000000000E+00      0.0000000000E+00      1          
hk_03_20               none                   factor                5.0000000000E+01      5.0000000000E+00      5.0000000000E+02       h                     1.0000000000E+00      0.0000000000E+00      1          
hk_03_21               none                   factor                5.0000000000E+01      5.0000000000E+00      5.0000000000E+02       h                     1.0000000000E+00      0.0000000000E+00      1          
hk_03_22               none                   factor                5.0000000000E+01      5.0000000000E+00      5.0000000000E+02       h                     1.0000000000E+00      0.0000000000E+00      1          
hk_03_23               none                   factor                5.0000000000E+01      5.0000000000E+00      5.0000000000E+02       h                     1.0000000000E+00      0.0000000000E+00      1          
hk_03_24               none                   factor                5.0000000000E+01      5.0000000000E+00      5.0000000000E+02       h                     1.0000000000E+00      0.0000000000E+00      1          
hk_03_25               none                   factor                5.0000000000E+01      5.0000000000E+00      5.0000000000E+02       h                     1.0000000000E+00      0.0000000000E+00      1          
hk_03_26               none                   factor                5.0000000000E+01      5.0000000000E+00      5.0000000000E+02       h                     1.0000000000E+00      0.0000000000E+00      1          
hk_03_27               none                   factor                5.0000000000E+01      5.0000000000E+00      5.0000000000E+02       h                     1.0000000000E+00      0.0000000000E+00      1          
hk_03_28               none                   factor                5.0000000000E+01      5.0000000000E+00      5.0000000000E+02       h                     1.0000000000E+00      0.0000000000E+00      1          
hk_03_29               none                   factor                5.0000000000E+01      5.0000000000E+00      5.0000000000E+02       h                     1.0000000000E+00      0.0000000000E+00      1          
hk_04_00               none                   factor                5.0000000000E+01      5.0000000000E+00      5.0000000000E+02       h                     1.0000000000E+00      0.0000000000E+00      1          
hk_04_01               none                   factor                5.0000000000E+01      5.0000000000E+00      5.0000000000E+02       h                     1.0000000000E+00      0.0000000000E+00      1          
hk_04_02               none                   factor                5.0000000000E+01      5.0000000000E+00      5.0000000000E+02       h                     1.0000000000E+00      0.0000000000E+00      1          
hk_04_03               none                   factor                5.0000000000E+01      5.0000000000E+00      5.0000000000E+02       h                     1.0000000000E+00      0.0000000000E+00      1          
hk_04_04               none                   factor                5.0000000000E+01      5.0000000000E+00      5.0000000000E+02       h                     1.0000000000E+00      0.0000000000E+00      1          
hk_04_05               none                   factor                5.0000000000E+01      5.0000000000E+00      5.0000000000E+02       h                     1.0000000000E+00      0.0000000000E+00      1          
hk_04_06               none                   factor                5.0000000000E+01      5.0000000000E+00      5.0000000000E+02       h                     1.0000000000E+00      0.0000000000E+00      1          
hk_04_07               none                   factor                5.0000000000E+01      5.0000000000E+00      5.0000000000E+02       h                     1.0000000000E+00      0.0000000000E+00      1          