# DIS package for  MODFLOW-NWT, generated by Flopy.
         3        40        20         3         4         2
  0  0  0
CONSTANT    2.500000E+02                           #delr                          
CONSTANT    2.500000E+02                           #delc                          
CONSTANT    3.500000E+01                           #model_top                     
CONSTANT    3.250000E+01                           #botm layer 1                  
CONSTANT    3.000000E+01                           #botm layer 2                  
CONSTANT    1.000000E+01                           #botm layer 2                 
      1.000000             1  1.000000  SS 
    180.000000             1  1.000000  TR 
   3650.000000             1  1.000000  SS 
