# BAS6 package for  MODFLOW-NWT, generated by Flopy.
 FREE
CONSTANT    1                           #strt layer 1 
CONSTANT    1                           #strt layer 1 
CONSTANT    1                           #strt layer 1              
        -999.99
CONSTANT    3.500000E+01                           #strt layer 1                  
CONSTANT    3.500000E+01                           #strt layer 2                  
CONSTANT    3.500000E+01                           #strt layer 3                  
