pcf
* control data
             restart          estimation
       764      1230         4        25         6         0
         4         2              single               point         1         0         0          noobsreref
   2.000000E+01  -3.000000E+00   3.000000E-01   1.000000E-02        -7       999          lamforgive        noderforgive
   1.000000E+01   1.000000E+01   1.000000E-03         0         0
   1.000000E-01         1   1.100000E+00               noaui          nosenreuse        noboundscale
         1   1.000000E-02         3         3   1.000000E-02         3   0.000000E+00         1  -1.000000E+00
         0         0         0         0             jcosave          verboserec          jcosaveitn          reisaveitn          parsaveitn        noparsaverun
* singular value decomposition
1
764    1.000000E-06
1 1 1
* parameter groups
trans                   relative              1.0000000000E-02       0.0  switch                2.0000000000E+00       parabolic             1.0000000000E-05      5.0000000000E-01       smaller              
pumping                 absolute              5.0000000000E+03       0.0  switch                2.0000000000E+00       parabolic             1.0000000000E-05      5.0000000000E-01       smaller              
external                relative              1.0000000000E-02       0.0  switch                2.0000000000E+00       parabolic             1.0000000000E-05      5.0000000000E-01       smaller              
sfr_seg                 relative              1.0000000000E-02       0.0  switch                2.0000000000E+00       parabolic             1.0000000000E-05      5.0000000000E-01       smaller
* parameter data
im10                   none                   factor                0.0000000000E+00      0.0000000000E+00      1.0000000000E+06       external              -1.0000000000E+00     0.0000000000E+00      1          
im11                   none                   factor                0.0000000000E+00      0.0000000000E+00      1.0000000000E+06       external              -1.0000000000E+00     0.0000000000E+00      1          
im12                   none                   factor                0.0000000000E+00      0.0000000000E+00      1.0000000000E+06       external              -1.0000000000E+00     0.0000000000E+00      1          
im9                    none                   factor                0.0000000000E+00      0.0000000000E+00      1.0000000000E+06       external              -1.0000000000E+00     0.0000000000E+00      1          
q1                     none                   factor                0.0000000000E+00      0.0000000000E+00      5.0000000000E+04       pumping               -1.0000000000E+00     0.0000000000E+00      1          
q2a                    none                   factor                0.0000000000E+00      0.0000000000E+00      5.0000000000E+04       pumping               -1.0000000000E+00     0.0000000000E+00      1          
q2b                    none                   factor                0.0000000000E+00      0.0000000000E+00      5.0000000000E+04       pumping               -1.0000000000E+00     0.0000000000E+00      1          
q2c                    none                   factor                0.0000000000E+00      0.0000000000E+00      5.0000000000E+04       pumping               -1.0000000000E+00     0.0000000000E+00      1          
q2d                    none                   factor                0.0000000000E+00      0.0000000000E+00      5.0000000000E+04       pumping               -1.0000000000E+00     0.0000000000E+00      1          
q4a                    none                   factor                0.0000000000E+00      0.0000000000E+00      5.0000000000E+04       pumping               -1.0000000000E+00     0.0000000000E+00      1          
q4b                    none                   factor                0.0000000000E+00      0.0000000000E+00      5.0000000000E+04       pumping               -1.0000000000E+00     0.0000000000E+00      1          
seg1                   log                    factor                5.0000000000E+00      5.0000000000E-01      5.0000000000E+01       sfr_seg               1.0000000000E+00      0.0000000000E+00      1          
seg2                   log                    factor                5.0000000000E+00      5.0000000000E-01      5.0000000000E+01       sfr_seg               1.0000000000E+00      0.0000000000E+00      1          
seg3                   log                    factor                5.0000000000E+00      5.0000000000E-01      5.0000000000E+01       sfr_seg               1.0000000000E+00      0.0000000000E+00      1          
t00_00                 log                    factor                5.0000000000E+03      5.0000000000E+02      5.0000000000E+04       trans                 1.0000000000E+00      0.0000000000E+00      1          
t00_01                 log                    factor                5.0000000000E+03      5.0000000000E+02      5.0000000000E+04       trans                 1.0000000000E+00      0.0000000000E+00      1          
t00_02                 log                    factor                5.0000000000E+03      5.0000000000E+02      5.0000000000E+04       trans                 1.0000000000E+00      0.0000000000E+00      1          
t00_03                 log                    factor                5.0000000000E+03      5.0000000000E+02      5.0000000000E+04       trans                 1.0000000000E+00      0.0000000000E+00      1          
t00_04                 log                    factor                5.0000000000E+03      5.0000000000E+02      5.0000000000E+04       trans                 1.0000000000E+00      0.0000000000E+00      1          
t00_05                 log                    factor                5.0000000000E+03      5.0000000000E+02      5.0000000000E+04       trans                 1.0000000000E+00      0.0000000000E+00      1          
t00_06                 log                    factor                5.0000000000E+03      5.0000000000E+02      5.0000000000E+04       trans                 1.0000000000E+00      0.0000000000E+00      1          
t00_07                 log                    factor                5.0000000000E+03      5.0000000000E+02      5.0000000000E+04       trans                 1.0000000000E+00      0.0000000000E+00      1          
t00_08                 log                    factor                5.0000000000E+03      5.0000000000E+02      5.0000000000E+04       trans                 1.0000000000E+00      0.0000000000E+00      1          
t00_09                 log                    factor                5.0000000000E+03      5.0000000000E+02      5.0000000000E+04       trans                 1.0000000000E+00      0.0000000000E+00      1          
t00_10                 log                    factor                5.0000000000E+03      5.0000000000E+02      5.0000000000E+04       trans                 1.0000000000E+00      0.0000000000E+00      1          
t00_11                 log                    factor                5.0000000000E+03      5.0000000000E+02      5.0000000000E+04       trans                 1.0000000000E+00      0.0000000000E+00      1          
t00_12                 log                    factor                5.0000000000E+03      5.0000000000E+02      5.0000000000E+04       trans                 1.0000000000E+00      0.0000000000E+00      1          
t00_13                 log                    factor                5.0000000000E+03      5.0000000000E+02      5.0000000000E+04       trans                 1.0000000000E+00      0.0000000000E+00      1          
t00_14                 log                    factor                5.0000000000E+03      5.0000000000E+02      5.0000000000E+04       trans                 1.0000000000E+00      0.0000000000E+00      1          
t00_15                 log                    factor                5.0000000000E+03      5.0000000000E+02      5.0000000000E+04       trans                 1.0000000000E+00      0.0000000000E+00      1          
t00_16                 log                    factor                5.0000000000E+03      5.0000000000E+02      5.0000000000E+04       trans                 1.0000000000E+00      0.0000000000E+00      1          
t00_17                 log                    factor                5.0000000000E+03      5.0000000000E+02      5.0000000000E+04       trans                 1.0000000000E+00      0.0000000000E+00      1          
t00_18                 log                    factor                5.0000000000E+03      5.0000000000E+02      5.0000000000E+04       trans                 1.0000000000E+00      0.0000000000E+00      1          
t00_19                 log                    factor                5.0000000000E+03      5.0000000000E+02      5.0000000000E+04       trans                 1.0000000000E+00      0.0000000000E+00      1          
t00_20                 log                    factor                5.0000000000E+03      5.0000000000E+02      5.0000000000E+04       trans                 1.0000000000E+00      0.0000000000E+00      1          
t00_21                 log                    factor                5.0000000000E+03      5.0000000000E+02      5.0000000000E+04       trans                 1.0000000000E+00      0.0000000000E+00      1          
t00_22                 log                    factor                5.0000000000E+03      5.0000000000E+02      5.0000000000E+04       trans                 1.0000000000E+00      0.0000000000E+00      1          
t00_23                 log                    factor                5.0000000000E+03      5.0000000000E+02      5.0000000000E+04       trans                 1.0000000000E+00      0.0000000000E+00      1          
t00_24                 log                    factor                5.0000000000E+03      5.0000000000E+02      5.0000000000E+04       trans                 1.0000000000E+00      0.0000000000E+00      1          
t00_25                 log                    factor                5.0000000000E+03      5.0000000000E+02      5.0000000000E+04       trans                 1.0000000000E+00      0.0000000000E+00      1          
t00_26                 log                    factor                5.0000000000E+03      5.0000000000E+02      5.0000000000E+04       trans                 1.0000000000E+00      0.0000000000E+00      1          
t00_27                 log                    factor                5.0000000000E+03      5.0000000000E+02      5.0000000000E+04       trans                 1.0000000000E+00      0.0000000000E+00      1          
t00_28                 log                    factor                5.0000000000E+03      5.0000000000E+02      5.0000000000E+04       trans                 1.0000000000E+00      0.0000000000E+00      1          
t00_29                 log                    factor                5.0000000000E+03      5.0000000000E+02      5.0000000000E+04       trans                 1.0000000000E+00      0.0000000000E+00      1          
t01_00                 log                    factor                5.0000000000E+03      5.0000000000E+02      5.0000000000E+04       trans                 1.0000000000E+00      0.0000000000E+00      1          
t01_01                 log                    factor                5.0000000000E+03      5.0000000000E+02      5.0000000000E+04       trans                 1.0000000000E+00      0.0000000000E+00      1          
t01_02                 log                    factor                5.0000000000E+03      5.0000000000E+02      5.0000000000E+04       trans                 1.0000000000E+00      0.0000000000E+00      1          
t01_03                 log                    factor                5.0000000000E+03      5.0000000000E+02      5.0000000000E+04       trans                 1.0000000000E+00      0.0000000000E+00      1          
t01_04                 log                    factor                5.0000000000E+03      5.0000000000E+02      5.0000000000E+04       trans                 1.0000000000E+00      0.0000000000E+00      1          
t01_05                 log                    factor                5.0000000000E+03      5.0000000000E+02      5.0000000000E+04       trans                 1.0000000000E+00      0.0000000000E+00      1          
t01_06                 log                    factor                5.0000000000E+03      5.0000000000E+02      5.0000000000E+04       trans                 1.0000000000E+00      0.0000000000E+00      1          
t01_07                 log                    factor                5.0000000000E+03      5.0000000000E+02      5.0000000000E+04       trans                 1.0000000000E+00      0.0000000000E+00      1          
t01_08                 log                    factor                5.0000000000E+03      5.0000000000E+02      5.0000000000E+04       trans                 1.0000000000E+00      0.0000000000E+00      1          
t01_09                 log                    factor                5.0000000000E+03      5.0000000000E+02      5.0000000000E+04       trans                 1.0000000000E+00      0.0000000000E+00      1          
t01_10                 log                    factor                5.0000000000E+03      5.0000000000E+02      5.0000000000E+04       trans                 1.0000000000E+00      0.0000000000E+00      1          
t01_11                 log                    factor                5.0000000000E+03      5.0000000000E+02      5.0000000000E+04       trans                 1.0000000000E+00      0.0000000000E+00      1          
t01_12                 log                    factor                5.0000000000E+03      5.0000000000E+02      5.0000000000E+04       trans                 1.0000000000E+00      0.0000000000E+00      1          
t01_13                 log                    factor                5.0000000000E+03      5.0000000000E+02      5.0000000000E+04       trans                 1.0000000000E+00      0.0000000000E+00      1          
t01_14                 log                    factor                5.0000000000E+03      5.0000000000E+02      5.0000000000E+04       trans                 1.0000000000E+00      0.0000000000E+00      1          
t01_15                 log                    factor                5.0000000000E+03      5.0000000000E+02      5.0000000000E+04       trans                 1.0000000000E+00      0.0000000000E+00      1          
t01_16                 log                    factor                5.0000000000E+03      5.0000000000E+02      5.0000000000E+04       trans                 1.0000000000E+00      0.0000000000E+00      1          
t01_17                 log                    factor                5.0000000000E+03      5.0000000000E+02      5.0000000000E+04       trans                 1.0000000000E+00      0.0000000000E+00      1          
t01_18                 log                    factor                5.0000000000E+03      5.0000000000E+02      5.0000000000E+04       trans                 1.0000000000E+00      0.0000000000E+00      1          
t01_19                 log                    factor                5.0000000000E+03      5.0000000000E+02      5.0000000000E+04       trans                 1.0000000000E+00      0.0000000000E+00      1          
t01_20                 log                    factor                5.0000000000E+03      5.0000000000E+02      5.0000000000E+04       trans                 1.0000000000E+00      0.0000000000E+00      1          
t01_21                 log                    factor                5.0000000000E+03      5.0000000000E+02      5.0000000000E+04       trans                 1.0000000000E+00      0.0000000000E+00      1          
t01_22                 log                    factor                5.0000000000E+03      5.0000000000E+02      5.0000000000E+04       trans                 1.0000000000E+00      0.0000000000E+00      1          
t01_23                 log                    factor                5.0000000000E+03      5.0000000000E+02      5.0000000000E+04       trans                 1.0000000000E+00      0.0000000000E+00      1          
t01_24                 log                    factor                5.0000000000E+03      5.0000000000E+02      5.0000000000E+04       trans                 1.0000000000E+00      0.0000000000E+00      1          
t01_25                 log                    factor                5.0000000000E+03      5.0000000000E+02      5.0000000000E+04       trans                 1.0000000000E+00      0.0000000000E+00      1          
t01_26                 log                    factor                5.0000000000E+03      5.0000000000E+02      5.0000000000E+04       trans                 1.0000000000E+00      0.0000000000E+00      1          
t01_27                 log                    factor                5.0000000000E+03      5.0000000000E+02      5.0000000000E+04       trans                 1.0000000000E+00      0.0000000000E+00      1          
t01_28                 log                    factor                5.0000000000E+03      5.0000000000E+02      5.0000000000E+04       trans                 1.0000000000E+00      0.0000000000E+00      1          
t01_29                 log                    factor                5.0000000000E+03      5.0000000000E+02      5.0000000000E+04       trans                 1.0000000000E+00      0.0000000000E+00      1          
t02_00                 log                    factor                5.0000000000E+03      5.0000000000E+02      5.0000000000E+04       trans                 1.0000000000E+00      0.0000000000E+00      1          
t02_01                 log                    factor                5.0000000000E+03      5.0000000000E+02      5.0000000000E+04       trans                 1.0000000000E+00      0.0000000000E+00      1          
t02_02                 log                    factor                5.0000000000E+03      5.0000000000E+02      5.0000000000E+04       trans                 1.0000000000E+00      0.0000000000E+00      1          
t02_03                 log                    factor                5.0000000000E+03      5.0000000000E+02      5.0000000000E+04       trans                 1.0000000000E+00      0.0000000000E+00      1          
t02_04                 log                    factor                5.0000000000E+03      5.0000000000E+02      5.0000000000E+04       trans                 1.0000000000E+00      0.0000000000E+00      1          
t02_05                 log                    factor                5.0000000000E+03      5.0000000000E+02      5.0000000000E+04       trans                 1.0000000000E+00      0.0000000000E+00      1          
t02_06                 log                    factor                5.0000000000E+03      5.0000000000E+02      5.0000000000E+04       trans                 1.0000000000E+00      0.0000000000E+00      1          
t02_07                 log                    factor                5.0000000000E+03      5.0000000000E+02      5.0000000000E+04       trans                 1.0000000000E+00      0.0000000000E+00      1          
t02_08                 log                    factor                5.0000000000E+03      5.0000000000E+02      5.0000000000E+04       trans                 1.0000000000E+00      0.0000000000E+00      1          
t02_09                 log                    factor                5.0000000000E+03      5.0000000000E+02      5.0000000000E+04       trans                 1.0000000000E+00      0.0000000000E+00      1          
t02_10                 log                    factor                5.0000000000E+03      5.0000000000E+02      5.0000000000E+04       trans                 1.0000000000E+00      0.0000000000E+00      1          
t02_11                 log                    factor                5.0000000000E+03      5.0000000000E+02      5.0000000000E+04       trans                 1.0000000000E+00      0.0000000000E+00      1          
t02_12                 log                    factor                5.0000000000E+03      5.0000000000E+02      5.0000000000E+04       trans                 1.0000000000E+00      0.0000000000E+00      1          
t02_13                 log                    factor                5.0000000000E+03      5.0000000000E+02      5.0000000000E+04       trans                 1.0000000000E+00      0.0000000000E+00      1          
t02_14                 log                    factor                5.0000000000E+03      5.0000000000E+02      5.0000000000E+04       trans                 1.0000000000E+00      0.0000000000E+00      1          
t02_15                 log                    factor                5.0000000000E+03      5.0000000000E+02      5.0000000000E+04       trans                 1.0000000000E+00      0.0000000000E+00      1          
t02_16                 log                    factor                5.0000000000E+03      5.0000000000E+02      5.0000000000E+04       trans                 1.0000000000E+00      0.0000000000E+00      1          
t02_17                 log                    factor                5.0000000000E+03      5.0000000000E+02      5.0000000000E+04       trans                 1.0000000000E+00      0.0000000000E+00      1          
t02_18                 log                    factor                5.0000000000E+03      5.0000000000E+02      5.0000000000E+04       trans                 1.0000000000E+00      0.0000000000E+00      1          
t02_19                 log                    factor                5.0000000000E+03      5.0000000000E+02      5.0000000000E+04       trans                 1.0000000000E+00      0.0000000000E+00      1          
t02_20                 log                    factor                5.0000000000E+03      5.0000000000E+02      5.0000000000E+04       trans                 1.0000000000E+00      0.0000000000E+00      1          
t02_21                 log                    factor                5.0000000000E+03      5.0000000000E+02      5.0000000000E+04       trans                 1.0000000000E+00      0.0000000000E+00      1          
t02_22                 log                    factor                5.0000000000E+03      5.0000000000E+02      5.0000000000E+04       trans                 1.0000000000E+00      0.0000000000E+00      1          
t02_23                 log                    factor                5.0000000000E+03      5.0000000000E+02      5.0000000000E+04       trans                 1.0000000000E+00      0.0000000000E+00      1          
t02_24                 log                    factor                5.0000000000E+03      5.0000000000E+02      5.0000000000E+04       trans                 1.0000000000E+00      0.0000000000E+00      1          
t02_25                 log                    factor                5.0000000000E+03      5.0000000000E+02      5.0000000000E+04       trans                 1.0000000000E+00      0.0000000000E+00      1          
t02_26                 log                    factor                5.0000000000E+03      5.0000000000E+02      5.0000000000E+04       trans                 1.0000000000E+00      0.0000000000E+00      1          
t02_27                 log                    factor                5.0000000000E+03      5.0000000000E+02      5.0000000000E+04       trans                 1.0000000000E+00      0.0000000000E+00      1          
t02_28                 log                    factor                5.0000000000E+03      5.0000000000E+02      5.0000000000E+04       trans                 1.0000000000E+00      0.0000000000E+00      1          
t02_29                 log                    factor                5.0000000000E+03      5.0000000000E+02      5.0000000000E+04       trans                 1.0000000000E+00      0.0000000000E+00      1          
t03_00                 log                    factor                5.0000000000E+03      5.0000000000E+02      5.0000000000E+04       trans                 1.0000000000E+00      0.0000000000E+00      1          
t03_01                 log                    factor                5.0000000000E+03      5.0000000000E+02      5.0000000000E+04       trans                 1.0000000000E+00      0.0000000000E+00      1          
t03_02                 log                    factor                5.0000000000E+03      5.0000000000E+02      5.0000000000E+04       trans                 1.0000000000E+00      0.0000000000E+00      1          
t03_03                 log                    factor                5.0000000000E+03      5.0000000000E+02      5.0000000000E+04       trans                 1.0000000000E+00      0.0000000000E+00      1          
t03_04                 log                    factor                5.0000000000E+03      5.0000000000E+02      5.0000000000E+04       trans                 1.0000000000E+00      0.0000000000E+00      1          
t03_05                 log                    factor                5.0000000000E+03      5.0000000000E+02      5.0000000000E+04       trans                 1.0000000000E+00      0.0000000000E+00      1          
t03_06                 log                    factor                5.0000000000E+03      5.0000000000E+02      5.0000000000E+04       trans                 1.0000000000E+00      0.0000000000E+00      1          
t03_07                 log                    factor                5.0000000000E+03      5.0000000000E+02      5.0000000000E+04       trans                 1.0000000000E+00      0.0000000000E+00      1          
t03_08                 log                    factor                5.0000000000E+03      5.0000000000E+02      5.0000000000E+04       trans                 1.0000000000E+00      0.0000000000E+00      1          
t03_09                 log                    factor                5.0000000000E+03      5.0000000000E+02      5.0000000000E+04       trans                 1.0000000000E+00      0.0000000000E+00      1          
t03_10                 log                    factor                5.0000000000E+03      5.0000000000E+02      5.0000000000E+04       trans                 1.0000000000E+00      0.0000000000E+00      1          
t03_11                 log                    factor                5.0000000000E+03      5.0000000000E+02      5.0000000000E+04       trans                 1.0000000000E+00      0.0000000000E+00      1          
t03_12                 log                    factor                5.0000000000E+03      5.0000000000E+02      5.0000000000E+04       trans                 1.0000000000E+00      0.0000000000E+00      1          
t03_13                 log                    factor                5.0000000000E+03      5.0000000000E+02      5.0000000000E+04       trans                 1.0000000000E+00      0.0000000000E+00      1          
t03_14                 log                    factor                5.0000000000E+03      5.0000000000E+02      5.0000000000E+04       trans                 1.0000000000E+00      0.0000000000E+00      1          
t03_15                 log                    factor                5.0000000000E+03      5.0000000000E+02      5.0000000000E+04       trans                 1.0000000000E+00      0.0000000000E+00      1          
t03_16                 log                    factor                5.0000000000E+03      5.0000000000E+02      5.0000000000E+04       trans                 1.0000000000E+00      0.0000000000E+00      1          
t03_17                 log                    factor                5.0000000000E+03      5.0000000000E+02      5.0000000000E+04       trans                 1.0000000000E+00      0.0000000000E+00      1          
t03_18                 log                    factor                5.0000000000E+03      5.0000000000E+02      5.0000000000E+04       trans                 1.0000000000E+00      0.0000000000E+00      1          
t03_19                 log                    factor                5.0000000000E+03      5.0000000000E+02      5.0000000000E+04       trans                 1.0000000000E+00      0.0000000000E+00      1          
t03_20                 log                    factor                5.0000000000E+03      5.0000000000E+02      5.0000000000E+04       trans                 1.0000000000E+00      0.0000000000E+00      1          
t03_21                 log                    factor                5.0000000000E+03      5.0000000000E+02      5.0000000000E+04       trans                 1.0000000000E+00      0.0000000000E+00      1          
t03_22                 log                    factor                5.0000000000E+03      5.0000000000E+02      5.0000000000E+04       trans                 1.0000000000E+00      0.0000000000E+00      1          
t03_23                 log                    factor                5.0000000000E+03      5.0000000000E+02      5.0000000000E+04       trans                 1.0000000000E+00      0.0000000000E+00      1          
t03_24                 log                    factor                5.0000000000E+03      5.0000000000E+02      5.0000000000E+04       trans                 1.0000000000E+00      0.0000000000E+00      1          
t03_25                 log                    factor                5.0000000000E+03      5.0000000000E+02      5.0000000000E+04       trans                 1.0000000000E+00      0.0000000000E+00      1          
t03_26                 log                    factor                5.0000000000E+03      5.0000000000E+02      5.0000000000E+04       trans                 1.0000000000E+00      0.0000000000E+00      1          
t03_27                 log                    factor                5.0000000000E+03      5.0000000000E+02      5.0000000000E+04       trans                 1.0000000000E+00      0.0000000000E+00      1          