# Well file for MODFLOW, generated by Flopy.
         7         0
         7         0 # stress period 0
         1         7        14   1.235E+07 junkjunk    1.235E+07
         1         7        16   1.235E+07
         1         8        15   1.235E+07
         1         9        14   1.235E+07
         1         9        16   1.235E+07
         1        11        17   1.235E+07
         1        13        16   1.235E+07
 