# BAS6 package for  MODFLOW-NWT, generated by Flopy.
FREE
INTERNAL               1     (FREE) -1 #ibound_layer_0                
         1         1         1         1         1         1         1         1         1         1         1         1         1         1         1         1         1         1         1         1         1         1         1         1         1         1         1         1         1         1         1         1         1         1         1         1         1         1         1         1         1         1         1         1         1         1         1         1         1         1
         1         1         1         1         1         1         1         1         1         1         1         1         1         1         1         1         1         1         1         1         1         1         1         1         1         1         1         1         1         1         1         1         1         1         1         1         1         1         1         1         1         1         1         1         1         1         1         1         1         1
         1         1         1         1         1         1         1         1         1         1         1         1         1         1         1         1         1         1         1         1         1         1         1         1         1         1         1         1         1         1         1         1         1         1         1         1         1         1         1         1         1         1         1         1         1         1         1         1         1         1
         1         1         1         1         1         1         1         1         1         1         1         1         1         1         1         1         1         1         1         1         1         1         1         1         1         1         1         1         1         1         1         1         1         1         1         1         1         1         1         1         1         1         1         1         1         1         1         1         1         1
         1         1         1         1         1         1         1         1         1         1         1         1         1         1         1         1         1         1         1         1         1         1         1         1         1         1         1         1         1         1         1         1         1         1         1         1         1         1         1         1         1         1         1         1         1         1         1         1         1         1
         1         1         1         1         1         1         1         1         1         1         1         1         1         1         1         1         1         1         1         1         1         1         1         1         1         1         1         1         1         1         1         1         1         1         1         1         1         1         1         1         1         1         1         1         1         1         1         1         1         1
         1         1         1         1         1         1         1         1         1         1         1         1         1         1         1         1         1         1         1         1         1         1         1         1         1         1         1         1         1         1         1         1         1         1         1         1         1         1         1         1         1         1         1         1         1         1         1         1         1         1
         1         1         1         1         1         1         1         1         1         1         1         1         1         1         1         1         1         1         1         1         1         1         1         1         1         1         1         1         1         1         1         1         1         1         1         1         1         1         1         1         1         1         1         1         1         1         1         1         1         1
         1         1         1         1         1         1         1         1         1         1         1         1         1         1         1         1         1         1         1         1         1         1         1         1         1         1         1         1         1         1         1         1         1         1         1         1         1         1         1         1         1         1         1         1         1         1         1         1         1         1
         1         1         1         1         1         1         1         1         1         1         1         1         1         1         1         1         1         1         1         1         1         1         1         1         1         1         1         1         1         1         1         1         1         1         1         1         1         1         1         1         1         1         1         1         1         1         1         1         1         1
         1         1         1         1         1         1         1         1         1         1         1         1         1         1         1         1         1         1         1         1         1         1         1         1         1         1         1         1         1         1         1         1         1         1         1         1         1         1         1         1         1         1         1         1         1         1         1         1         1         1
         1         1         1         1         1         1         1         1         1         1         1         1         1         1         1         1         1         1         1         1         1         1         1         1         1         1         1         1         1         1         1         1         1         1         1         1         1         1         1         1         1         1         1         1         1         1         1         1         1         1
         1         1         1         1         1         1         1         1         1         1         1         1         1         1         1         1         1         1         1         1         1         1         1         1         1         1         1         1         1         1         1         1         1         1         1         1         1         1         1         1         1         1         1         1         1         1         1         1         1         1
         1         1         1         1         1         1         1         1         1         1         1         1         1         1         1         1         1         1         1         1         1         1         1         1         1         1         1         1         1         1         1         1         1         1         1         1         1         1         1         1         1         1         1         1         1         1         1         1         1         1
         1         1         1         1         1         1         1         1         1         1         1         1         1         1         1         1         1         1         1         1         1         1         1         1         1         1         1         1         1         1         1         1         1         1         1         1         1         1         1         1         1         1         1         1         1         1         1         1         1         1
         1         1         1         1         1         1         1         1         1         1         1         1         1         1         1         1         1         1         1         1         1         1         1         1         1         1         1         1         1         1         1         1         1         1         1         1         1         1         1         1         1         1         1         1         1         1         1         1         1         1
         1         1         1         1         1         1         1         1         1         1         1         1         1         1         1         1         1         1         1         1         1         1         1         1         1         1         1         1         1         1         1         1         1         1         1         1         1         1         1         1         1         1         1         1         1         1         1         1         1         1
         1         1         1         1         1         1         1         1         1         1         1         1         1         1         1         1         1         1         1         1         1         1         1         1         1         1         1         1         1         1         1         1         1         1         1         1         1         1         1         1         1         1         1         1         1         1         1         1         1         1
         1         1         1         1         1         1         1         1         1         1         1         1         1         1         1         1         1         1         1         1         1         1         1         1         1         1         1         1         1         1         1         1         1         1         1         1         1         1         1         1         1         1         1         1         1         1         1         1         1         1
         1         1         1         1         1         1         1         1         1         1         1         1         1         1         1         1         1         1         1         1         1         1         1         1         1         1         1         1         1         1         1         1         1         1         1         1         1         1         1         1         1         1         1         1         1         1         1         1         1         1
         1         1         1         1         1         1         1         1         1         1         1         1         1         1         1         1         1         1         1         1         1         1         1         1         1         1         1         1         1         1         1         1         1         1         1         1         1         1         1         1         1         1         1         1         1         1         1         1         1         1
         1         1         1         1         1         1         1         1         1         1         1         1         1         1         1         1         1         1         1         1         1         1         1         1         1         1         1         1         1         1         1         1         1         1         1         1         1         1         1         1         1         1         1         1         1         1         1         1         1         1
         1         1         1         1         1         1         1         1         1         1         1         1         1         1         1         1         1         1         1         1         1         1         1         1         1         1         1         1         1         1         1         1         1         1         1         1         1         1         1         1         1         1         1         1         1         1         1         1         1         1
         1         1         1         1         1         1         1         1         1         1         1         1         1         1         1         1         1         1         1         1         1         1         1         1         1         1         1         1         1         1         1         1         1         1         1         1         1         1         1         1         1         1         1         1         1         1         1         1         1         1
         1         1         1         1         1         1         1         1         1         1         1         1         1         1         1         1         1         1         1         1         1         1         1         1         1         1         1         1         1         1         1         1         1         1         1         1         1         1         1         1         1         1         1         1         1         1         1         1         1         1
         1         1         1         1         1         1         1         1         1         1         1         1         1         1         1         1         1         1         1         1         1         1         1         1         1         1         1         1         1         1         1         1         1         1         1         1         1         1         1         1         1         1         1         1         1         1         1         1         1         1
         1         1         1         1         1         1         1         1         1         1         1         1         1         1         1         1         1         1         1         1         1         1         1         1         1         1         1         1         1         1         1         1         1         1         1         1         1         1         1         1         1         1         1         1         1         1         1         1         1         1
         1         1         1         1         1         1         1         1         1         1         1         1         1         1         1         1         1         1         1         1         1         1         1         1         1         1         1         1         1         1         1         1         1         1         1         1         1         1         1         1         1         1         1         1         1         1         1         1         1         1
         1         1         1         1         1         1         1         1         1         1         1         1         1         1         1         1         1         1         1         1         1         1         1         1         1         1         1         1         1         1         1         1         1         1         1         1         1         1         1         1         1         1         1         1         1         1         1         1         1         1
         1         1         1         1         1         1         1         1         1         1         1         1         1         1         1         1         1         1         1         1         1         1         1         1         1         1         1         1         1         1         1         1         1         1         1         1         1         1         1         1         1         1         1         1         1         1         1         1         1         1
         1         1         1         1         1         1         1         1         1         1         1         1         1         1         1         1         1         1         1         1         1         1         1         1         1         1         1         1         1         1         1         1         1         1         1         1         1         1         1         1         1         1         1         1         1         1         1         1         1         1
         1         1         1         1         1         1         1         1         1         1         1         1         1         1         1         1         1         1         1         1         1         1         1         1         1         1         1         1         1         1         1         1         1         1         1         1         1         1         1         1         1         1         1         1         1         1         1         1         1         1
         1         1         1         1         1         1         1         1         1         1         1         1         1         1         1         1         1         1         1         1         1         1         1         1         1         1         1         1         1         1         1         1         1         1         1         1         1         1         1         1         1         1         1         1         1         1         1         1         1         1
         1         1         1         1         1         1         1         1         1         1         1         1         1         1         1         1         1         1         1         1         1         1         1         1         1         1         1         1         1         1         1         1         1         1         1         1         1         1         1         1         1         1         1         1         1         1         1         1         1         1
         1         1         1         1         1         1         1         1         1         1         1         1         1         1         1         1         1         1         1         1         1         1         1         1         1         1         1         1         1         1         1         1         1         1         1         1         1         1         1         1         1         1         1         1         1         1         1         1         1         1
         1         1         1         1         1         1         1         1         1         1         1         1         1         1         1         1         1         1         1         1         1         1         1         1         1         1         1         1         1         1         1         1         1         1         1         1         1         1         1         1         1         1         1         1         1         1         1         1         1         1
         1         1         1         1         1         1         1         1         1         1         1         1         1         1         1         1         1         1         1         1         1         1         1         1         1         1         1         1         1         1         1         1         1         1         1         1         1         1         1         1         1         1         1         1         1         1         1         1         1         1
         1         1         1         1         1         1         1         1         1         1         1         1         1         1         1         1         1         1         1         1         1         1         1         1         1         1         1         1         1         1         1         1         1         1         1         1         1         1         1         1         1         1         1         1         1         1         1         1         1         1
         1         1         1         1         1         1         1         1         1         1         1         1         1         1         1         1         1         1         1         1         1         1         1         1         1         1         1         1         1         1         1         1         1         1         1         1         1         1         1         1         1         1         1         1         1         1         1         1         1         1
         1         1         1         1         1         1         1         1         1         1         1         1         1         1         1         1         1         1         1         1         1         1         1         1         1         1         1         1         1         1         1         1         1         1         1         1         1         1         1         1         1         1         1         1         1         1         1         1         1         1
         1         1         1         1         1         1         1         1         1         1         1         1         1         1         1         1         1         1         1         1         1         1         1         1         1         1         1         1         1         1         1         1         1         1         1         1         1         1         1         1         1         1         1         1         1         1         1         1         1         1
         1         1         1         1         1         1         1         1         1         1         1         1         1         1         1         1         1         1         1         1         1         1         1         1         1         1         1         1         1         1         1         1         1         1         1         1         1         1         1         1         1         1         1         1         1         1         1         1         1         1
         1         1         1         1         1         1         1         1         1         1         1         1         1         1         1         1         1         1         1         1         1         1         1         1         1         1         1         1         1         1         1         1         1         1         1         1         1         1         1         1         1         1         1         1         1         1         1         1         1         1
         1         1         1         1         1         1         1         1         1         1         1         1         1         1         1         1         1         1         1         1         1         1         1         1         1         1         1         1         1         1         1         1         1         1         1         1         1         1         1         1         1         1         1         1         1         1         1         1         1         1
         1         1         1         1         1         1         1         1         1         1         1         1         1         1         1         1         1         1         1         1         1         1         1         1         1         1         1         1         1         1         1         1         1         1         1         1         1         1         1         1         1         1         1         1         1         1         1         1         1         1
         1         1         1         1         1         1         1         1         1         1         1         1         1         1         1         1         1         1         1         1         1         1         1         1         1         1         1         1         1         1         1         1         1         1         1         1         1         1         1         1         1         1         1         1         1         1         1         1         1         1
         1         1         1         1         1         1         1         1         1         1         1         1         1         1         1         1         1         1         1         1         1         1         1         1         1         1         1         1         1         1         1         1         1         1         1         1         1         1         1         1         1         1         1         1         1         1         1         1         1         1
         1         1         1         1         1         1         1         1         1         1         1         1         1         1         1         1         1         1         1         1         1         1         1         1         1         1         1         1         1         1         1         1         1         1         1         1         1         1         1         1         1         1         1         1         1         1         1         1         1         1
         1         1         1         1         1         1         1         1         1         1         1         1         1         1         1         1         1         1         1         1         1         1         1         1         1         1         1         1         1         1         1         1         1         1         1         1         1         1         1         1         1         1         1         1         1         1         1         1         1         1
         1         1         1         1         1         1         1         1         1         1         1         1         1         1         1         1         1         1         1         1         1         1         1         1         1         1         1         1         1         1         1         1         1         1         1         1         1         1         1         1         1         1         1         1         1         1         1         1         1         1
   -999.99
INTERNAL               1  (50E15.6) -1 #strt layer 1                  
   4.499700E+01   4.499700E+01   4.499700E+01   4.499700E+01   4.499500E+01   4.499200E+01   4.498600E+01   4.497700E+01   4.497300E+01   4.497300E+01   4.497300E+01   4.497500E+01   4.497600E+01   4.498100E+01   4.497300E+01   4.496500E+01   4.495400E+01   4.495500E+01   4.496000E+01   4.496200E+01   4.496300E+01   4.497700E+01   4.498100E+01   4.498900E+01   4.499300E+01   4.499000E+01   4.498200E+01   4.498500E+01   4.498500E+01   4.498400E+01   4.499000E+01   4.498900E+01   4.498700E+01   4.498500E+01   4.498300E+01   4.497700E+01   4.497500E+01   4.497300E+01   4.497100E+01   4.497100E+01   4.497100E+01   4.497200E+01   4.497200E+01   4.497300E+01   4.497300E+01   4.497300E+01   4.497400E+01   4.497400E+01   4.497400E+01   4.497500E+01
   4.499700E+01   4.499700E+01   4.499700E+01   4.499600E+01   4.499300E+01   4.498900E+01   4.497900E+01   4.497300E+01   4.497000E+01   4.496800E+01   4.496500E+01   4.496400E+01   4.496300E+01   4.497000E+01   4.495700E+01   4.495000E+01   4.493700E+01   4.493800E+01   4.494800E+01   4.494200E+01   4.492600E+01   4.493700E+01   4.493800E+01   4.495600E+01   4.497700E+01   4.497000E+01   4.496500E+01   4.496300E+01   4.496300E+01   4.496300E+01   4.497100E+01   4.497700E+01   4.497800E+01   4.497600E+01   4.498200E+01   4.497800E+01   4.497500E+01   4.497200E+01   4.497000E+01   4.496900E+01   4.496800E+01   4.497100E+01   4.497200E+01   4.497300E+01   4.497300E+01   4.497300E+01   4.497300E+01   4.497400E+01   4.497400E+01   4.497400E+01
   4.499700E+01   4.499700E+01   4.499600E+01   4.499400E+01   4.498900E+01   4.498300E+01   4.497500E+01   4.496600E+01   4.496500E+01   4.496200E+01   4.495700E+01   4.495100E+01   4.494900E+01   4.492300E+01   4.489300E+01   4.490000E+01   4.490400E+01   4.490300E+01   4.491500E+01   4.490100E+01   4.487100E+01   4.487400E+01   4.487600E+01   4.488600E+01   4.491500E+01   4.488100E+01   4.491900E+01   4.493300E+01   4.492000E+01   4.491100E+01   4.491500E+01   4.491700E+01   4.493700E+01   4.494800E+01   4.496800E+01   4.497100E+01   4.497100E+01   4.496800E+01   4.496600E+01   4.496300E+01   4.496100E+01   4.496500E+01   4.497100E+01   4.497200E+01   4.497300E+01   4.497300E+01   4.497400E+01   4.497400E+01   4.497400E+01   4.497400E+01
   4.499600E+01   4.499600E+01   4.499500E+01   4.499200E+01   4.498200E+01   4.497500E+01   4.496700E+01   4.496200E+01   4.496000E+01   4.495500E+01   4.494700E+01   4.493900E+01   4.492000E+01   4.488200E+01   4.486800E+01   4.486200E+01   4.485400E+01   4.484800E+01   4.484500E+01   4.483200E+01   4.478500E+01   4.477700E+01   4.476500E+01   4.476800E+01   4.481900E+01   4.478000E+01   4.481100E+01   4.484100E+01   4.480700E+01   4.482700E+01   4.482700E+01   4.482400E+01   4.486800E+01   4.490700E+01   4.494100E+01   4.494700E+01   4.494800E+01   4.494800E+01   4.495300E+01   4.495300E+01   4.494900E+01   4.495000E+01   4.496500E+01   4.497200E+01   4.497300E+01   4.497300E+01   4.497400E+01   4.497400E+01   4.497500E+01   4.497500E+01
   4.499600E+01   4.499500E+01   4.499300E+01   4.498900E+01   4.498200E+01   4.497400E+01   4.496600E+01   4.496000E+01   4.495600E+01   4.494900E+01   4.493700E+01   4.491800E+01   4.488100E+01   4.485300E+01   4.484300E+01   4.481700E+01   4.478300E+01   4.477700E+01   4.477300E+01   4.473700E+01   4.465300E+01   4.462400E+01   4.459700E+01   4.462300E+01   4.467100E+01   4.461200E+01   4.462200E+01   4.463700E+01   4.465700E+01   4.471400E+01   4.474800E+01   4.476000E+01   4.480200E+01   4.486200E+01   4.490800E+01   4.492000E+01   4.491000E+01   4.491200E+01   4.491700E+01   4.492300E+01   4.492500E+01   4.493000E+01   4.494900E+01   4.496800E+01   4.497200E+01   4.497300E+01   4.497400E+01   4.497400E+01   4.497500E+01   4.497600E+01
   4.499500E+01   4.499500E+01   4.499200E+01   4.498900E+01   4.498300E+01   4.497600E+01   4.496700E+01   4.495900E+01   4.495400E+01   4.494300E+01   4.492500E+01   4.489400E+01   4.485400E+01   4.481900E+01   4.479400E+01   4.475400E+01   4.471800E+01   4.471100E+01   4.468500E+01   4.459600E+01   4.453700E+01   4.452100E+01   4.452800E+01   4.451100E+01   4.448400E+01   4.447200E+01   4.447900E+01   4.451100E+01   4.454800E+01   4.459700E+01   4.465900E+01   4.470600E+01   4.472600E+01   4.478800E+01   4.485600E+01   4.488600E+01   4.488300E+01   4.488400E+01   4.488100E+01   4.488500E+01   4.489900E+01   4.491000E+01   4.492400E+01   4.495200E+01   4.496800E+01   4.497100E+01   4.497400E+01   4.497500E+01   4.497600E+01   4.497700E+01