# GHB package for  MODFLOW-NWT, generated by Flopy.
       100         0
       100         0 # stress period 1
         1         1         1   4.5000000E+01   0.1
         1         1        50   4.5000000E+01   0.1
         1         2         1   4.5000000E+01   0.1
         1         2        50   4.5000000E+01   0.1
         1         3         1   4.5000000E+01   0.1
         1         3        50   4.5000000E+01   0.1
         1         4         1   4.5000000E+01   0.1
         1         4        50   4.5000000E+01   0.1
         1         5         1   4.5000000E+01   0.1
         1         5        50   4.5000000E+01   0.1
         1         6         1   4.5000000E+01   0.1
         1         6        50   4.5000000E+01   0.1
         1         7         1   4.5000000E+01   0.1
         1         7        50   4.5000000E+01   0.1
         1         8         1   4.5000000E+01   0.1
         1         8        50   4.5000000E+01   0.1
         1         9         1   4.5000000E+01   0.1
         1         9        50   4.5000000E+01   0.1
         1        10         1   4.5000000E+01   0.1
         1        10        50   4.5000000E+01   0.1
         1        11         1   4.5000000E+01   0.1
         1        11        50   4.5000000E+01   0.1
         1        12         1   4.5000000E+01   0.1
         1        12        50   4.5000000E+01   0.1
         1        13         1   4.5000000E+01   0.1
         1        13        50   4.5000000E+01   0.1
         1        14         1   4.5000000E+01   0.1
         1        14        50   4.5000000E+01   0.1
         1        15         1   4.5000000E+01   0.1
         1        15        50   4.5000000E+01   0.1
         1        16         1   4.5000000E+01   0.1
         1        16        50   4.5000000E+01   0.1
         1        17         1   4.5000000E+01   0.1
         1        17        50   4.5000000E+01   0.1
         1        18         1   4.5000000E+01   0.1
         1        18        50   4.5000000E+01   0.1
         1        19         1   4.5000000E+01   0.1
         1        19        50   4.5000000E+01   0.1
         1        20         1   4.5000000E+01   0.1
         1        20        50   4.5000000E+01   0.1
         1        21         1   4.5000000E+01   0.1
         1        21        50   4.5000000E+01   0.1
         1        22         1   4.5000000E+01   0.1
         1        22        50   4.5000000E+01   0.1
         1        23         1   4.5000000E+01   0.1
         1        23        50   4.5000000E+01   0.1
         1        24         1   4.5000000E+01   0.1
         1        24        50   4.5000000E+01   0.1
         1        25         1   4.5000000E+01   0.1
         1        25        50   4.5000000E+01   0.1
         1        26         1   4.5000000E+01   0.1
         1        26        50   4.5000000E+01   0.1
         1        27         1   4.5000000E+01   0.1
         1        27        50   4.5000000E+01   0.1
         1        28         1   4.5000000E+01   0.1
         1        28        50   4.5000000E+01   0.1
         1        29         1   4.5000000E+01   0.1
         1        29        50   4.5000000E+01   0.1
         1        30         1   4.5000000E+01   0.1
         1        30        50   4.5000000E+01   0.1
         1        31         1   4.5000000E+01   0.1
         1        31        50   4.5000000E+01   0.1
         1        32         1   4.5000000E+01   0.1
         1        32        50   4.5000000E+01   0.1
         1        33         1   4.5000000E+01   0.1
         1        33        50   4.5000000E+01   0.1
         1        34         1   4.5000000E+01   0.1
         1        34        50   4.5000000E+01   0.1
         1        35         1   4.5000000E+01   0.1
         1        35        50   4.5000000E+01   0.1
         1        36         1   4.5000000E+01   0.1
         1        36        50   4.5000000E+01   0.1
         1        37         1   4.5000000E+01   0.1
         1        37        50   4.5000000E+01   0.1
         1        38         1   4.5000000E+01   0.1
         1        38        50   4.5000000E+01   0.1
         1        39         1   4.5000000E+01   0.1
         1        39        50   4.5000000E+01   0.1
         1        40         1   4.5000000E+01   0.1
         1        40        50   4.5000000E+01   0.1
         1        41         1   4.5000000E+01   0.1
         1        41        50   4.5000000E+01   0.1
         1        42         1   4.5000000E+01   0.1
         1        42        50   4.5000000E+01   0.1
         1        43         1   4.5000000E+01   0.1
         1        43        50   4.5000000E+01   0.1
         1        44         1   4.5000000E+01   0.1
         1        44        50   4.5000000E+01   0.1
         1        45         1   4.5000000E+01   0.1
         1        45        50   4.5000000E+01   0.1
         1        46         1   4.5000000E+01   0.1
         1        46        50   4.5000000E+01   0.1
         1        47         1   4.5000000E+01   0.1
         1        47        50   4.5000000E+01   0.1
         1        48         1   4.5000000E+01   0.1
         1        48        50   4.5000000E+01   0.1
         1        49         1   4.5000000E+01   0.1
         1        49        50   4.5000000E+01   0.1
         1        50         1   4.5000000E+01   0.1
         1        50        50   4.5000000E+01   0.1
       100         0 # stress period 2
         1         1         1   4.5000000E+01   0.1
         1         1        50   4.5000000E+01   0.1
         1         2         1   4.5000000E+01   0.1
         1         2        50   4.5000000E+01   0.1
         1         3         1   4.5000000E+01   0.1
         1         3        50   4.5000000E+01   0.1
         1         4         1   4.5000000E+01   0.1
         1         4        50   4.5000000E+01   0.1
         1         5         1   4.5000000E+01   0.1
         1         5        50   4.5000000E+01   0.1
         1         6         1   4.5000000E+01   0.1
         1         6        50   4.5000000E+01   0.1
         1         7         1   4.5000000E+01   0.1
         1         7        50   4.5000000E+01   0.1
         1         8         1   4.5000000E+01   0.1
         1         8        50   4.5000000E+01   0.1
         1         9         1   4.5000000E+01   0.1
         1         9        50   4.5000000E+01   0.1
         1        10         1   4.5000000E+01   0.1
         1        10        50   4.5000000E+01   0.1
         1        11         1   4.5000000E+01   0.1
         1        11        50   4.5000000E+01   0.1
         1        12         1   4.5000000E+01   0.1
         1        12        50   4.5000000E+01   0.1
         1        13         1   4.5000000E+01   0.1
         1        13        50   4.5000000E+01   0.1
         1        14         1   4.5000000E+01   0.1
         1        14        50   4.5000000E+01   0.1
         1        15         1   4.5000000E+01   0.1
         1        15        50   4.5000000E+01   0.1
         1        16         1   4.5000000E+01   0.1
         1        16        50   4.5000000E+01   0.1
         1        17         1   4.5000000E+01   0.1
         1        17        50   4.5000000E+01   0.1
         1        18         1   4.5000000E+01   0.1
         1        18        50   4.5000000E+01   0.1
         1        19         1   4.5000000E+01   0.1
         1        19        50   4.5000000E+01   0.1
         1        20         1   4.5000000E+01   0.1
         1        20        50   4.5000000E+01   0.1
         1        21         1   4.5000000E+01   0.1
         1        21        50   4.5000000E+01   0.1
         1        22         1   4.5000000E+01   0.1
         1        22        50   4.5000000E+01   0.1
         1        23         1   4.5000000E+01   0.1
         1        23        50   4.5000000E+01   0.1
         1        24         1   4.5000000E+01   0.1
         1        24        50   4.5000000E+01   0.1
         1        25         1   4.5000000E+01   0.1
         1        25        50   4.5000000E+01   0.1
         1        26         1   4.5000000E+01   0.1
         1        26        50   4.5000000E+01   0.1
         1        27         1   4.5000000E+01   0.1
         1        27        50   4.5000000E+01   0.1
         1        28         1   4.5000000E+01   0.1
         1        28        50   4.5000000E+01   0.1
         1        29         1   4.5000000E+01   0.1
         1        29        50   4.5000000E+01   0.1
         1        30         1   4.5000000E+01   0.1
         1        30        50   4.5000000E+01   0.1
         1        31         1   4.5000000E+01   0.1
         1        31        50   4.5000000E+01   0.1
         1        32         1   4.5000000E+01   0.1
         1        32        50   4.5000000E+01   0.1
         1        33         1   4.5000000E+01   0.1
         1        33        50   4.5000000E+01   0.1
         1        34         1   4.5000000E+01   0.1
         1        34        50   4.5000000E+01   0.1
         1        35         1   4.5000000E+01   0.1
         1        35        50   4.5000000E+01   0.1
         1        36         1   4.5000000E+01   0.1
         1        36        50   4.5000000E+01   0.1
         1        37         1   4.5000000E+01   0.1
         1        37        50   4.5000000E+01   0.1
         1        38         1   4.5000000E+01   0.1
         1        38        50   4.5000000E+01   0.1
         1        39         1   4.5000000E+01   0.1
         1        39        50   4.5000000E+01   0.1
         1        40         1   4.5000000E+01   0.1
         1        40        50   4.5000000E+01   0.1
         1        41         1   4.5000000E+01   0.1
         1        41        50   4.5000000E+01   0.1
         1        42         1   4.5000000E+01   0.1
         1        42        50   4.5000000E+01   0.1
         1        43         1   4.5000000E+01   0.1
         1        43        50   4.5000000E+01   0.1
         1        44         1   4.5000000E+01   0.1
         1        44        50   4.5000000E+01   0.1
         1        45         1   4.5000000E+01   0.1
         1        45        50   4.5000000E+01   0.1
         1        46         1   4.5000000E+01   0.1
         1        46        50   4.5000000E+01   0.1
         1        47         1   4.5000000E+01   0.1
         1        47        50   4.5000000E+01   0.1
         1        48         1   4.5000000E+01   0.1
         1        48        50   4.5000000E+01   0.1
         1        49         1   4.5000000E+01   0.1
         1        49        50   4.5000000E+01   0.1
         1        50         1   4.5000000E+01   0.1
         1        50        50   4.5000000E+01   0.1
