# UPW package for  MODFLOW-NWT, generated by Flopy.
        55    -1E+30         0         0 
         1
         0
         1
         0
         0
INTERNAL               1  (50E15.6) -1 #hk layer 1                    
   9.920136E-01   1.704457E+00   1.093374E+00   1.708454E-01   1.018578E-01   4.614859E-01   1.050332E-01   3.731403E-01   1.292705E+00   4.078031E-01   3.185934E-01   1.941971E-01   1.542092E-01   1.038164E-01   3.425540E-01   3.893923E-01   8.480853E-01   3.882955E-01   3.334703E-01   1.888797E-01   9.711064E-02   4.329816E-02   3.618933E-02   2.878353E-02   4.010386E-02   6.110361E-02   1.434894E-01   4.997235E-02   5.791073E-02   1.202157E-01   3.505735E-02   1.903562E-01   5.259673E-01   3.236365E-01   2.764042E-01   1.790326E+00   4.515927E+00   4.083057E+00   5.315562E+00   1.519619E+01   1.192562E+01   7.557543E+00   4.410303E+01   8.244801E+01   6.358248E+01   2.064463E+02   7.300144E+00   1.847727E+01   7.224150E+00   3.704731E+00
   3.742310E+00   2.312550E+00   1.617948E-01   2.762948E-01   1.986109E-01   9.781723E-02   4.823667E-01   8.491583E-01   2.703864E+00   7.988314E-01   9.244372E-01   2.899586E-01   4.802524E-01   4.333582E-02   5.244605E-02   7.798029E-02   5.067278E-01   4.364931E-01   1.989299E-01   2.836027E-01   2.425165E-01   8.369588E-02   1.042349E-01   5.991548E-02   3.117249E-02   2.368346E-02   2.611595E-01   1.450890E-01   1.687598E-01   1.142754E-01   5.584977E-02   4.285862E-02   9.519880E-02   1.692372E-01   7.578633E-02   4.037835E-01   7.557603E-01   1.867503E+00   7.131258E+00   3.257310E+00   1.810107E+00   1.300608E+01   1.218530E+01   1.959721E+01   1.259241E+02   5.414736E+01   1.026464E+02   1.268412E+01   5.906116E+01   2.527939E+01
   1.513069E+00   4.664876E-01   2.232224E-01   1.127712E-01   2.277489E-01   1.905496E-01   1.668887E-01   1.238541E+00   1.271791E+00   1.132395E+00   1.772951E+00   1.381342E+00   7.293724E-01   1.366976E-01   8.456939E-01   2.230210E-01   6.934620E-01   4.933877E-01   1.002398E-01   1.410448E-01   4.809836E-01   2.242285E-01   3.939544E-01   1.115324E-01   5.116850E-02   2.605250E-01   1.058747E-01   3.266630E-01   1.161226E-01   1.819765E-01   8.391846E-02   8.475623E-02   8.826593E-02   2.567659E-01   8.509564E-02   1.310864E-01   1.943139E-01   7.214074E-01   1.708302E+00   4.138620E+00   5.469814E+00   9.203279E-01   4.089150E+00   1.150542E+01   1.305136E+02   1.314961E+02   2.505495E+01   5.854827E+01   5.813039E+01   3.396915E+01
   4.551786E+00   7.228139E-01   2.950877E-01   6.085809E-02   5.633757E-01   8.607990E-01   1.478679E+00   1.920582E+01   2.024974E+00   1.107950E+00   1.173326E+00   1.616223E+00   2.056688E-01   5.040031E-01   1.128708E+00   8.339134E-01   4.204004E-01   4.751288E-01   1.774321E-01   2.173228E-01   3.734195E-01   1.580918E-01   1.329070E-01   1.735006E-01   7.967706E-02   2.030792E-01   9.511491E-02   5.170651E-02   1.409333E-01   2.352460E-01   3.089280E-01   3.981162E-01   3.326095E-01   3.828753E-01   1.030651E-01   2.863430E-01   1.424557E-01   2.125030E-01   5.996320E-01   1.059152E+00   2.646981E+00   1.634160E+00   2.101741E+00   1.712261E+01   6.544127E+01   2.047331E+01   6.252801E+00   1.461285E+01   1.624349E+01   2.417745E+00
   9.780944E-01   1.913426E-01   3.289228E-01   4.775399E-01   6.065779E-01   1.265622E+00   1.684446E+00   1.247258E+01   8.283140E+00   3.788167E+00   2.370435E+00   9.549707E-01   6.138027E-01   1.029125E+00   2.786855E+00   4.655312E-01   7.590583E-01   7.306514E-01   5.942966E-01   1.192526E-01   6.602050E-01   3.589959E-01   1.272730E+00   5.344058E-01   6.407291E-02   4.436091E-01   1.761880E-01   1.940201E-01   6.866840E-01   2.529365E-01   3.064146E-01   2.367873E+00   2.363247E-01   2.377573E-01   1.622843E-01   3.745426E-01   6.527345E-01   1.039352E+00   3.260241E-01   3.234382E-01   2.008353E+00   3.650266E+00   5.972269E-01   2.778893E+00   5.206142E+00   3.182829E+01   9.082731E+00   6.417833E+00   9.553433E+00   7.407145E-01
   3.786974E+00   5.900444E-01   8.929666E-01   7.974960E-01   8.291687E-01   1.095887E+00   1.297013E+00   2.900197E+00   1.154818E+01   2.112537E+00   2.624740E+00   2.194961E+00   2.993740E+00   1.324415E+00   5.357093E-01   9.557739E-01   1.753519E+00   1.139656E+00   2.483515E-01   2.352621E-01   8.617757E-01   9.448733E-01   1.628242E+00   3.274064E-01   3.056439E-01   7.660761E-01   1.815612E+00   1.096190E+00   6.172722E-01   3.421973E-01   7.411754E-01   9.251245E-01   9.109638E-01   2.702311E-01   1.182486E-01   2.220768E-01   1.291257E+00   6.157255E-01   3.155879E+00   2.639153E+00   3.821651E+00   2.700718E+00   9.881459E-01   5.546198E-01   2.366075E+00   2.590170E+00   1.548982E+00   1.512772E+00   3.580879E+00   1.289676E+00
   1.302208E+00   2.040869E-01   9.508772E-01   7.903023E-01   1.850373E+00   6.677001E-01   4.564032E-01   7.143621E-01   8.480194E-01   8.701837E+00   9.907980E-01   5.774810E-01   1.810941E+00   4.679682E+00   2.575794E+00   5.737954E-01   3.356752E+00   1.013977E+00   3.949887E-01   1.065873E+00   3.927353E+00   2.893784E+00   9.769882E-01   2.804748E+00   1.099996E+00   4.631502E+00   1.451412E+00   7.217146E-01   4.743875E+00   2.055337E+00   9.898971E-01   1.421118E+00   1.113361E+00   4.021655E-01   3.021237E-01   3.256972E-01   1.339614E+00   2.464858E+00   1.724460E+00   2.838164E+00   3.689740E+00   2.635222E+00   1.559925E+00   5.896587E-01   5.223444E-01   2.008512E+00   4.756134E-01   6.274998E-01   2.947173E+00   3.618467E+00
   1.439217E+01   4.129955E+00   2.074701E+00   2.895102E-01   1.860169E-01   7.281730E-01   7.816821E-01   1.955374E+00   5.125917E+00   1.044055E+00   1.386311E+00   3.514495E-01   2.953759E-01   1.366077E+00   2.512240E+00   4.756573E+00   1.604887E+00   8.610162E-01   3.311010E+00   4.123785E+00   1.543487E+01   7.606603E+00   7.751073E-01   4.245618E+00   9.901044E+00   1.415444E+01   4.830691E+00   2.099801E+00   3.316486E+00   8.499722E+00   8.443860E-01   9.767742E-01   2.801181E+00   8.344095E-01   9.317081E-01   3.525940E-01   9.190603E-01   1.203515E+00   3.042828E+00   7.471518E+00   2.288451E+00   2.635700E+00   2.632506E+00   1.560611E+00   5.460921E-01   1.462223E+00   6.771383E+00   7.241727E+00   1.326472E+01   2.956627E+00
   3.183710E+01   3.263252E+00   4.490129E+00   4.997613E-01   3.424495E-01   3.211779E-01   2.711214E-01   1.301623E+00   1.152032E+00   8.730654E-01   6.011105E-01   3.652466E-01   2.818814E-01   2.168871E+00   1.482724E+00   3.776742E+00   3.369053E+00   2.263278E+00   2.572748E+00   1.147529E+00   4.183104E+00   3.443279E+00   3.439926E+00   1.605382E+01   7.546704E+00   7.958050E+00   3.279420E+01   1.874657E+00   3.128880E+00   3.959767E+00   5.215270E-01   3.888093E+00   2.305480E+00   7.502545E-01   7.945397E-01   1.432152E+00   8.810741E-01   1.064498E+00   5.858744E+00   1.702330E+01   5.176414E+00   3.896660E+00   1.735467E+00   9.588069E-01   9.140628E-01   2.312482E+00   4.072621E+00   3.007241E+00   1.691341E+00   9.261417E-01
   2.199059E+01   8.770385E+00   1.410585E+01   2.023504E+00   2.679385E+00   3.209204E-01   1.700621E-01   5.581526E-01   2.986745E-01   6.010578E-01   4.087377E-01   2.038895E+00   1.943639E+00   4.435040E+00   4.363329E+00   1.896322E+00   1.153375E+00   1.982357E+01   1.144296E+01   6.158596E+00   2.320358E+00   6.981028E-01   6.280159E+00   8.869080E+00   3.421255E+00   2.333533E+00   1.631108E+00   8.799391E-01   5.832571E+00   3.639651E+00   2.252420E+00   6.492560E+00   1.104889E+01   2.426411E+00   3.485463E+00   4.160328E+00   6.641494E+00   9.419521E+00   6.392281E+00   9.698894E+00   4.089108E+00   5.403880E+00   5.356451E-01   6.038164E-01   4.153601E-01   3.003781E-01   1.195344E+00   9.283446E-01   3.715299E-01   7.426990E-01
   2.557584E+01   4.856040E+01   1.757281E+01   2.643151E+00   1.238612E+00   7.479165E-01   6.049023E-01   1.773338E-01   3.211070E-01   2.540385E-01   1.315006E+00   8.203322E-01   5.554965E-01   2.392422E+00   1.046150E+01   4.635700E+00   3.895055E+00   5.472831E+00   7.014445E+00   3.415639E+01   2.317027E+00   2.921379E+00   1.155102E+01   8.499535E+00   7.212953E+00   4.235352E+00   1.252985E+00   4.355708E+00   1.248106E+01   2.735524E+00   1.414629E+00   1.710517E+00   1.721566E+00   2.316744E+00   4.049976E+00   3.344731E+00   5.515053E+00   1.091691E+01   6.992351E+00   1.435900E+01   2.685655E+01   2.672310E+00   4.257234E-01   5.371739E-01   1.138442E+00   1.143832E-01   7.934994E-02   1.428304E-01   4.705358E-01   2.574865E-01
   2.494530E+01   2.259128E+01   3.963659E+00   1.270230E+00   4.630223E-01   7.488410E-01   4.348986E-01   8.985464E-02   1.632228E-01   4.537430E-01   2.627015E-01   2.674834E-01   3.240494E-01   1.199968E+00   2.899278E+00   1.046126E+01   1.487455E+00   4.615816E+00   3.319935E+00   6.958638E+00   3.290010E+00   1.095124E+01   6.754839E+00   9.375113E+00   3.673591E+00   1.418679E+00   6.835888E-01   1.492649E+01   4.588609E+01   1.624082E+01   2.317748E+00   6.882388E-01   3.830718E-01   1.276259E+00   6.081211E-01   1.103212E+00   1.632201E+01   1.140580E+01   4.242146E+00   1.004956E+01   2.480154E+00   2.026078E+00   1.273144E+00   1.103986E+00   7.946867E-01   4.278672E-01   2.385241E-01   4.121640E-01   5.650142E-01   1.690465E-01
   3.829591E+01   2.302556E+01   1.539437E+01   1.791963E+00   5.784665E-01   1.733972E+00   3.692866E-01   1.362777E-01   9.718909E-02   3.641255E-01   1.176921E+00   1.021638E+00   6.435160E-01   1.337123E+00   1.343942E+00   5.050817E+00   7.060464E+00   2.240031E+00   2.343698E+00   1.811158E+00   2.287140E+01   4.140925E+01   4.663911E+01   1.006608E+01   3.982480E+00   1.932205E+01   2.446421E+00   1.581653E+01   1.737695E+01   2.921712E+00   7.496003E-01   3.414343E-01   3.763681E-01   8.561654E-01   4.753054E-01   6.969653E+00   6.143708E+00   3.079947E+00   9.049400E+00   2.769345E+00   2.239700E+00   9.466537E-01   1.429015E+00   9.249437E-01   2.519835E+00   2.615249E+00   4.755408E-01   3.307474E-01   1.168208E+00   1.077920E-01
   4.472702E+01   1.154343E+01   9.760249E-01   5.671109E-01   4.472625E-01   1.085999E+00   5.559003E-01   1.285056E-01   5.654282E-01   7.773998E-01   2.887550E-01   4.240727E-01   4.189186E-01   4.065001E-01   1.263309E+00   6.444402E-01   4.569267E+00   1.390836E+01   4.039254E+00   9.450774E+00   1.585296E+01   6.316706E+01   5.117600E+01   8.856939E+00   2.044536E+01   9.805594E+00   6.159250E+00   2.591588E+01   7.489859E+00   5.401134E+00   1.026588E+00   1.344552E+00   2.183962E+00   1.575017E+00   5.339420E+00   1.154948E+01   2.204759E+00   1.113505E+00   4.961408E-01   1.022452E+00   8.195833E-01   1.984685E+00   9.529484E-01   9.091796E-01   5.792099E+00   1.690780E+00   3.176400E-01   6.909272E-01   9.790324E-01   2.745471E-01
   1.873807E+00   3.573570E+00   1.278668E+00   3.646782E-01   3.433583E-01   2.067725E-01   6.406016E-01   2.941810E-01   2.029806E+00   1.681313E+00   1.701485E-01   5.555784E-01   1.420422E+00   8.431700E-01   5.818059E-01   4.461356E-01   5.704892E-01   5.551445E+00   3.890062E+00   9.385880E+00   2.040816E+01   8.676375E+01   4.645636E+01   4.461549E+01   1.890345E+02   1.567770E+02   1.132869E+01   2.261253E+01   1.095570E+01   1.527330E+01   1.580680E+01   3.933613E+00   1.844804E+01   5.934578E+00   6.478724E+00   5.351424E+00   2.337898E+00   1.395016E+00   4.263371E-01   8.822986E-01   1.135646E+00   1.518364E+00   2.567024E+00   1.338635E+01   4.176132E+00   5.949602E+00   1.142499E+00   4.626088E-01   1.564483E+00   5.561875E-01
   2.414058E+00   2.603615E+00   6.880270E-01   1.526796E+00   1.826349E-01   1.702458E-01   5.313851E-01   3.340968E-01   6.213118E-01   4.030753E-01   1.099301E-01   8.897996E-02   6.007570E-01   5.809987E-01   3.998084E-01   3.950441E-01   5.594574E-01   8.692687E-01   1.720514E+00   1.114533E+01   5.205635E+01   4.266881E+01   2.111677E+02   1.658091E+02   2.882236E+02   5.056355E+01   7.611797E+01   5.002007E+01   3.964653E+01   1.635778E+01   2.560576E+01   1.800740E+01   3.792548E+01   1.606145E+01   3.409988E+00   2.851265E+00   3.271325E+00   2.246127E+00   5.488441E+00   5.637675E-01   7.820644E-01   1.414777E+00   2.703765E+00   1.398530E+01   1.135976E+01   7.465263E+00   1.492485E+00   1.499071E+00   8.458081E-01   3.527721E-01
   8.880178E-01   2.592988E+00   2.795241E+00   2.077133E+00   9.944649E-01   2.191933E-01   2.443079E+00   1.672239E+00   9.743094E-01   3.753617E-01   2.220872E-01   2.505557E-01   3.633942E-01   8.202976E-01   2.198246E-01   2.234113E-01   7.004147E-01   1.062046E+00   1.173832E+00   2.117741E+00   3.424422E+00   3.610929E+01   2.924451E+02   2.074167E+02   4.199365E+02   6.212106E+01   4.416879E+01   8.543243E+01   3.820095E+01   2.291871E+01   2.649421E+01   5.997225E+01   2.650048E+01   9.145541E+00   1.871497E+00   1.327440E+00   6.007074E+00   5.402725E+00   2.219487E+01   2.001755E+01   7.841438E+00   5.151536E+00   3.363972E+00   5.110198E+00   1.749834E+00   5.701669E-01   1.370181E+00   5.636059E+00   3.517865E+00   6.069046E-01
   5.825045E-01   5.507832E-01   1.352360E+00   1.635375E+00   1.117167E+00   9.717715E-01   1.486611E+00   4.753436E+00   3.597083E+00   2.320762E+00   1.823720E-01   2.240538E-01   3.110904E-01   1.736121E-01   4.331159E-01   3.757687E+00   1.805908E+00   1.612754E+00   9.550297E-01   3.170963E+00   3.891253E+00   2.552001E+01   1.224977E+02   1.272770E+02   1.072828E+02   4.065795E+01   2.823791E+01   7.397080E+00   1.540408E+01   8.566025E+00   6.480089E+00   1.890931E+01   2.458228E+01   1.004558E+00   1.927590E+00   8.795816E-01   2.640602E+00   1.973355E+01   4.381349E+01   5.662694E+01   1.715386E+01   1.821004E+00   1.763021E+00   2.017569E+00   7.114821E-01   1.924433E+00   1.591251E+00   2.229745E+00   7.014253E-01   5.304998E-01
   2.305506E-01   1.888192E-01   2.387756E-01   1.252139E-01   2.111557E-01   5.734167E-01   1.915883E+00   1.411322E+00   9.544056E+00   8.700013E-01   8.327704E-01   4.358622E-01   4.437638E-01   3.710700E-01   1.294389E+00   2.186216E+00   2.608427E+00   3.654000E+00   4.432061E-01   1.722317E+00   1.544115E+01   1.308338E+01   2.026934E+01   6.689990E+01   1.053246E+02   1.882962E+02   1.741012E+01   1.127300E+01   8.732939E+00   2.705872E+00   7.406123E+00   1.155074E+01   4.487351E+00   9.032540E-01   6.065130E-01   3.814392E+00   9.222409E+00   3.388553E+01   3.465479E+01   7.765295E+01   2.229129E+01   1.251339E+00   4.332455E+00   6.752326E+00   2.380540E+00   1.462270E+00   1.150604E+00   9.043034E-02   1.448975E-01   7.421684E-02
   9.326499E-02   1.098682E-01   8.798145E-02   2.897561E-02   1.114531E-01   1.924187E-01   1.854174E-01   3.723694E-01   7.735924E-01   5.907454E-01   7.599744E-01   1.848837E-01   4.417577E-01   4.806651E-01   2.253972E+00   4.419461E+00   3.493239E+00   1.920045E+00   2.053554E+00   6.973794E+00   1.682754E+01   1.251113E+01   3.502356E+01   5.615141E+01   1.023954E+02   1.367217E+01   8.701334E+00   7.545282E+00   1.666800E+00   5.064652E+00   3.326191E+00   2.308488E+00   2.936131E+00   9.444620E-01   1.825498E+00   1.011859E+01   7.949961E+00   3.522914E+01   1.180262E+01   3.202436E+01   7.123854E+00   1.176754E+00   1.585222E+00   5.041520E+00   1.371821E+00   1.465340E+00   1.522491E-01   1.071633E-01   9.312630E-02   4.700388E-02
   1.285499E-01   3.490292E-01   1.877481E-01   6.221510E-02   2.749220E-02   8.601207E-02   3.520848E-02   4.310167E-01   3.632396E-01   7.819392E-01   1.115788E+00   4.937278E-01   2.048940E+00   6.661221E-01   1.434628E+00   2.852283E+00   6.603523E+00   3.919327E+00   4.346094E+00   2.322931E+01   6.886299E+01   1.645125E+01   1.323381E+01   1.451045E+01   6.224685E+00   7.919961E+00   5.823909E+00   7.863604E+00   2.676457E+00   5.780130E+00   3.741366E+00   1.241145E+00   1.086532E+00   8.143447E-01   1.407611E+00   1.627297E+01   1.194210E+01   6.573162E+00   5.382659E+00   5.652442E+00   8.385543E-01   1.024090E+00   2.436681E+00   3.209869E+00   7.865382E-01   2.119249E+00   4.287132E-01   3.391767E-01   6.424263E-02   3.319645E-02
   2.616025E-01   1.619305E-01   2.440750E-01   6.220553E-02   1.779852E-02   4.254133E-03   3.841208E-02   1.273296E-01   4.497306E-01   1.190078E+00   9.453006E-01   9.950657E-01   2.506500E+00   5.348754E+00   7.676356E-01   8.533438E+00   3.846267E+00   9.654068E+00   5.694148E+00   3.183952E+01   1.452478E+02   8.697251E+00   1.249888E+01   1.071744E+01   3.629187E+00   3.243990E+00   5.807357E+00   2.181135E+00   1.939095E+00   1.655721E+00   1.149516E+00   3.945694E-01   5.780362E-01   5.375377E-01   6.739246E+00   9.697838E+00   7.299901E+00   1.896149E+01   2.855520E+00   4.349802E+00   3.431389E+00   1.344977E+00   6.242990E-01   4.619158E-01   6.869735E-01   1.311776E-01   7.739816E-02   5.060593E-01   1.925223E-01   3.843276E-01
   5.872875E-01   3.044536E-01   3.851703E-01   3.431004E-02   1.275975E-02   4.481492E-03   3.046490E-02   3.207429E-01   5.590120E-01   3.828640E-01   1.190067E+00   1.220055E+00   9.668418E-01   7.326776E-01   1.286530E+00   6.549150E+00   9.330082E+00   2.323792E+00   2.938808E+00   4.630805E+01   9.429478E+01   3.584494E+01   5.947687E+01   5.306031E+00   5.572676E+00   3.315979E+00   5.527730E+00   1.912324E+00   2.349559E+00   1.160141E+00   3.372759E-01   9.128407E-01   5.415169E-01   9.217141E-01   1.481382E+00   3.425525E+00   1.169151E+01   5.902434E+00   9.829417E-01   1.775953E+00   7.058524E-01   1.233459E+00   1.499417E+00   7.255998E-01   6.534968E-01   3.313620E-01   4.647306E-01   6.295350E-01   3.599441E-01   1.518434E+00
   1.518791E-01   9.403754E-01   1.932400E-01   4.171631E-02   1.008447E-02   4.686814E-03   6.129440E-03   9.479262E-02   1.546265E-01   3.514112E-01   2.767900E+00   4.754781E-01   1.742976E+00   2.062504E+00   3.242698E+00   6.902915E+00   1.751789E+00   2.873524E+00   3.162501E+01   3.196110E+01   1.303850E+02   1.432155E+02   3.916983E+01   1.183548E+01   2.165125E+01   5.656389E+00   1.575916E+01   3.388542E+01   9.933646E+00   1.200741E+00   2.798469E+00   7.990127E-01   2.380713E-01   3.637908E+00   5.515092E+00   3.041492E+00   1.952612E+00   1.251948E+00   4.097316E-01   1.260096E-01   1.650055E+00   1.151571E+00   9.799119E-01   8.193043E-01   2.373547E-01   2.998196E-01   1.435746E-01   5.069708E-01   1.107397E+00   1.627410E+00
   5.590670E-02   1.782714E-02   3.728187E-02   3.096750E-02   1.398093E-02   2.393177E-03   2.205505E-03   9.010034E-03   7.310014E-02   2.965470E-01   5.932716E-01   1.916913E+00   5.578862E+00   2.120699E+00   2.728479E+01   1.630209E+01   2.082356E+01   4.275549E+00   5.873827E+01   3.281420E+02   3.214240E+02   2.013630E+02   6.305053E+01   8.193365E+00   1.459749E+01   2.197398E+01   9.597529E+01   2.090106E+01   2.374813E+01   2.334889E+00   8.198092E+00   2.396464E+00   1.065499E+00   2.768144E+00   8.524923E-01   1.417092E+00   1.430996E+00   7.466234E-01   1.185952E-01   2.366516E-01   8.899028E-01   1.030463E+00   5.145888E-01   4.943336E-01   9.512224E-02   3.520590E-01   1.752199E-01   4.774834E-01   3.658908E-01   3.185773E+00
   7.952493E-03   9.336757E-03   1.021092E-02   4.666443E-02   5.531989E-03   2.050011E-03   3.114289E-03   1.392651E-02   8.599651E-02   6.615162E-01   1.467646E+00   1.160547E+00   2.944183E+00   4.043578E+00   1.803786E+00   3.132087E+00   5.556489E+00   3.002807E+01   6.691689E+01   5.251039E+01   3.286171E+02   9.371052E+01   4.303566E+01   1.426380E+01   1.118896E+01   4.780066E+01   2.492733E+01   8.641562E+00   1.092110E+01   9.444739E+00   8.973601E+00   6.425029E+00   2.059607E+00   3.711143E+00   2.823484E-01   5.145037E-01   6.384793E-01   2.761317E+00   4.064339E-01   5.708976E-01   8.028999E-01   6.481448E-01   2.445270E-01   1.802650E-01   8.974639E-02   1.527515E-01   8.319171E-02   1.066885E-01   2.606033E-01   1.255459E+00
   1.228692E-02   1.655976E-02   1.502302E-02   4.684899E-02   1.389389E-02   2.937165E-03   6.133484E-03   5.437507E-03   9.358347E-02   9.682094E-01   1.209417E+00   2.580981E+00   7.330618E+00   5.021173E+00   7.627810E+00   1.471789E+00   9.665476E+00   1.529540E+01   2.998480E+01   1.161243E+02   5.379022E+02   1.898481E+02   3.694718E+01   1.990711E+01   4.809149E+01   4.615304E+01   9.473338E+00   1.249368E+01   1.036325E+01   4.585312E+01   2.577759E+00   1.308899E+00   4.291337E-01   4.610871E-01   3.719999E-01   8.494924E-01   8.407071E-01   1.428340E+00   4.271620E+00   1.430659E+00   1.291133E-01   7.578336E-02   2.644796E-01   3.223515E-01   9.059253E-02   1.081960E-01   8.191057E-02   5.817298E-02   3.266276E-01   1.328227E+00
   4.616883E-02   1.159415E-01   2.821055E-02   2.999449E-02   1.685591E-02   2.159552E-02   4.165396E-02   9.401416E-03   5.223038E-02   3.532064E-01   5.709168E-01   2.933154E+00   7.870466E+00   5.560386E+00   1.547078E+00   1.292576E+00   3.768237E+00   1.562807E+01   1.858775E+01   1.866184E+02   1.984973E+02   2.929481E+02   1.357448E+02   8.519232E+01   3.247464E+02   1.082476E+02   2.362283E+01   1.199626E+02   2.400274E+01   1.146454E+01   4.387562E+00   8.336471E-01   1.475327E+00   3.005748E+00   3.746859E-01   1.218084E+00   3.767461E-01   1.693491E-01   1.120835E+00   1.055256E+00   3.015500E-01   7.389187E-01   1.470810E-01   2.501010E-01   2.239440E-02   5.698658E-02   5.280984E-02   1.853404E-01   4.847582E-01   3.975209E-01
   1.465789E-01   9.840108E-02   1.827324E-02   3.491567E-02   5.124855E-03   4.436273E-03   3.171293E-03   4.892873E-02   3.654541E-01   4.699286E-01   1.411332E+00   1.001050E+00   6.752962E+00   2.071657E+00   1.240197E+00   1.109380E+00   5.563819E+00   1.745796E+01   3.977082E+01   7.125605E+02   8.045397E+02   8.822058E+02   1.842090E+02   1.984976E+02   8.511992E+01   1.697941E+02   1.232122E+02   4.676153E+02   2.421129E+02   1.915118E+02   8.360311E+00   7.245348E+00   5.599883E+00   4.486497E+00   3.938976E-01   8.087496E-01   6.595393E-01   1.333779E+00   4.491971E-01   2.443722E-01   8.873612E-01   4.157349E-01   3.791048E-02   4.028208E-02   9.585296E-03   1.554569E-02   9.145763E-02   8.808518E-02   1.851774E-01   1.321327E-01
   1.742797E-02   1.576878E-02   1.284346E-02   4.834005E-03   2.924792E-03   3.857103E-03   8.529370E-03   8.601429E-02   3.723468E-01   5.303387E-02   1.005685E-01   2.045107E+00   3.464528E+00   2.065716E+00   1.848159E+00   4.348022E+00   8.170391E+00   7.617883E+01   9.383968E+01   9.602118E+02   2.910788E+02   5.365153E+02   4.268548E+02   3.558721E+02   6.421062E+01   5.566957E+01   1.938908E+02   3.259170E+02   2.889156E+02   4.125361E+02   3.385669E+02   2.659465E+01   2.810798E+01   4.301989E+00   2.360616E+00   3.107977E+00   1.612486E+00   4.738496E+00   4.216004E+00   4.900652E-01   1.725235E+00   5.763273E-01   1.014915E-01   6.793120E-02   6.004685E-02   6.511420E-02   2.968811E-02   1.426636E-01   2.433397E-01   1.264945E-01
   1.404760E-02   4.813883E-03   8.911812E-03   6.519516E-03   1.490137E-02   7.722522E-03   6.760287E-03   1.174186E-01   3.620659E-01   3.786577E-02   7.046023E-02   3.407767E-01   6.601952E-01   2.696990E+00   2.579991E+00   3.279166E+00   7.180569E+00   1.361065E+01   6.724959E+00   6.669547E+01   1.242868E+02   3.810132E+02   4.282367E+02   4.740150E+02   1.315609E+02   5.252341E+01   1.335509E+02   3.709831E+02   1.235278E+02   3.992720E+02   1.192954E+02   2.703009E+02   4.209301E+01   8.429581E+00   1.627965E+01   5.612583E+00   9.476375E+00   7.984745E+00   9.415296E+00   3.350379E+00   2.119789E+00   1.358359E+00   3.315662E-01   7.848057E-02   6.723925E-02   5.832580E-02   1.551269E-01   3.290181E-01   3.009450E-01   1.113034E-01
   6.616637E-03   1.512134E-02   5.510665E-03   1.830462E-02   2.711271E-02   4.880948E-02   2.356839E-02   2.812879E-02   2.932698E-02   1.883349E-02   2.567451E-02   1.029129E-01   3.506536E-01   7.782336E-01   4.811139E+00   5.790439E-01   5.956124E-01   1.419038E+00   1.139890E+01   9.742336E+01   5.775678E+01   7.690926E+01   1.251587E+02   3.093727E+02   1.176716E+02   1.046937E+02   1.215002E+02   3.019205E+02   3.511714E+02   6.916542E+02   7.509019E+02   7.759029E+01   9.396159E+01   7.399863E+01   4.280121E+00   2.500577E+00   7.234287E+00   2.938070E+00   4.864959E+00   3.046716E+00   1.598051E+00   1.294104E+00   2.668622E-01   1.037193E-01   2.517249E-02   1.065451E-01   1.266813E-01   3.894067E-01   1.560640E-01   4.628803E-02
   2.271399E-02   1.091912E-02   3.133221E-02   5.135494E-02   1.749088E-01   5.662867E-02   3.959588E-02   3.559361E-03   3.134557E-03   2.002227E-03   2.264644E-02   3.803238E-01   2.702566E-01   6.477630E-01   1.256048E+00   7.705937E-01   2.538446E+00   1.677062E+00   5.660256E+00   3.038808E+01   1.567097E+02   1.393684E+02   1.317579E+02   2.641684E+02   1.328721E+02   2.885941E+01   1.038653E+02   4.480182E+02   1.492482E+03   3.282697E+03   1.476169E+03   2.072048E+02   2.484768E+01   2.810709E+01   1.077613E+01   5.149470E+00   2.887722E+00   9.074958E+00   5.357959E+00   4.072917E+00   6.486732E+00   1.627599E+00   2.804011E-01   8.920757E-02   1.473664E-01   7.915472E-01   1.636976E+00   1.076075E+00   4.195400E-01   8.704968E-01
   7.330488E-02   1.152925E-01   1.562469E-01   1.472300E-01   2.412295E-01   7.051561E-02   2.052338E-02   1.338840E-02   6.466314E-03   1.220314E-02   7.496794E-02   1.380001E-01   1.577021E-01   5.694690E-01   2.289676E+00   1.405215E+00   2.090196E+00   2.770906E+00   1.288484E+00   6.910797E+00   4.559897E+01   6.385190E+01   1.008613E+02   2.119934E+02   7.123009E+01   3.315859E+02   6.133701E+02   1.323052E+02   2.173357E+02   3.942138E+02   1.736851E+03   8.656434E+01   1.248319E+01   1.042146E+01   3.181221E+00   4.963254E+00   1.520021E+00   5.838569E+00   4.670622E+00   2.606311E+00   2.322697E+00   2.635042E-01   2.685290E-01   1.004738E-01   9.899936E-02   2.244619E+00   1.586296E+00   1.195182E+00   1.599082E+00   2.637126E-01
   4.261504E-01   2.972790E-01   9.363144E-02   1.233058E-01   2.308230E-01   2.515606E-02   1.185532E-02   9.162319E-03   2.528830E-02   1.626937E-02   1.198713E-01   4.578840E-02   7.001451E-02   6.112784E-02   6.173924E-02   1.168403E+00   1.653629E+00   4.969423E+00   1.880115E+00   5.006350E+00   2.248851E+01   2.331943E+01   9.188832E+01   7.367855E+02   4.241592E+02   9.761893E+02   1.577882E+03   2.942761E+02   2.185219E+02   1.692526E+02   2.680334E+02   5.277613E+01   1.044962E+01   1.246132E+01   4.979835E+00   2.459739E+00   6.065695E+00   8.243373E+00   1.070734E+00   1.637144E-01   2.363139E-01   3.763902E-01   1.892480E-01   9.480309E-02   1.858062E-01   7.366493E-01   1.060478E+00   2.430586E-01   3.140022E-01   1.057404E-01
   1.824650E-01   4.121358E-02   7.935552E-02   6.735431E-02   1.351359E-02   1.471387E-02   1.199500E-02   1.325041E-02   2.553743E-02   1.135259E-02   3.108273E-02   1.668978E-02   4.454188E-02   2.038744E-01   1.275660E-01   9.960800E-02   2.501048E-01   8.312790E-01   3.388186E+00   3.654289E+00   1.349131E+01   4.471450E+01   4.187916E+02   6.883884E+02   4.261524E+02   7.325832E+02   5.942410E+02   2.272232E+02   8.797148E+02   1.637574E+02   1.809361E+02   2.198975E+01   3.476226E+01   1.282324E+01   1.731252E+01   1.065659E+00   1.010370E+00   1.512643E+00   1.699869E-01   1.360629E-01   7.095504E-02   2.192955E-02   1.597543E-01   9.313064E-01   9.527475E-01   5.863774E-01   2.346103E-01   1.387240E-01   1.066195E-01   2.463096E-01
   2.025480E-01   5.121522E-02   1.095629E-01   7.610827E-02   3.865041E-02   4.026549E-02   1.486559E-02   5.526781E-03   1.301326E-02   4.201136E-02   5.405398E-02   1.922886E-02   3.273957E-02   3.052363E-01   7.102118E-01   8.100258E-01   7.598860E-01   1.073177E+00   1.851775E+00   3.145330E+00   1.702478E+02   1.615582E+02   2.265919E+02   1.768802E+02   2.724611E+02   3.152643E+02   4.686574E+03   1.035546E+03   1.971370E+03   2.280610E+02   2.704125E+02   7.563035E+01   5.821990E+01   8.610920E+00   1.398450E+00   7.603076E-01   8.245633E-01   6.102530E-02   9.022386E-02   3.878865E-02   2.036760E-02   6.279872E-02   4.363059E-01   4.627094E+00   6.687061E-01   1.222753E+00   1.324375E-01   2.731946E-01   4.600906E-01   9.750137E-02
   1.490450E-01   4.605193E-02   6.092802E-02   7.383087E-02   3.421954E-02   3.947747E-02   6.045107E-03   2.969636E-03   7.858388E-03   4.762509E-02   6.783728E-02   9.127858E-02   8.748335E-02   9.160631E-01   2.549470E+00   1.412847E+00   1.915668E+00   3.751578E+00   1.439613E+00   8.543737E+00   3.239217E+02   7.212800E+02   1.571205E+02   1.601150E+02   8.837028E+01   1.298704E+02   1.063004E+03   3.728453E+02   7.688244E+02   1.251198E+02   8.887703E+02   4.772417E+01   7.576584E+00   7.596087E+00   1.520356E+00   3.253371E-01   2.540009E-01   2.454385E-01   3.923106E-01   1.200424E-01   3.934508E-01   3.256066E-01   6.256645E-01   9.030329E-01   4.786119E-01   6.169233E-01   6.484543E-01   4.592935E-01   1.484891E+00   2.855633E-01
   2.227346E-01   9.851789E-02   2.319447E-01   2.107104E-01   2.826599E-01   6.861997E-02   4.222986E-02   2.679289E-02   5.104526E-02   5.257104E-02   5.109993E-02   9.782249E-02   6.776986E-02   6.071517E-01   7.601872E+00   3.612474E+00   9.862409E+00   3.412697E+00   2.374952E+00   2.517882E+00   6.757703E+01   2.027873E+02   1.169267E+02   2.353100E+02   6.732908E+01   7.000319E+01   1.543128E+02   2.174793E+02   1.010687E+02   6.044825E+01   1.845668E+02   1.791943E+02   2.036999E+01   4.718228E+01   1.700335E+00   5.913011E-01   4.884557E-01   1.515945E+00   1.388030E+00   4.549452E-01   9.636548E-01   4.616649E-01   6.818668E-01   2.730455E-01   6.134567E-01   3.025184E+00   7.171029E+00   8.538016E-01   6.161926E-01   1.658693E-01