# WEL package for  MODFLOW-NWT, generated by Flopy.
         1         0
         1         0 # stress period 1
         1        25        25  -2.0000000E+03
