# BAS6 package for  MODFLOW-NWT, generated by Flopy.
 FREE
INTERNAL               1     (FREE) -1 #ibound_layer_0                
         1         1         1         1         1         1         1         1         1         1         1         1         1         1         1         1         1         1         1         1         1         1         1         1         1         1         1         1         1         1         1         1         1         1         1         1         1         1         1         1         1         1         1         1         1         1         1         1         1         1
         1         1         1         1         1         1         1         1         1         1         1         1         1         1         1         1         1         1         1         1         1         1         1         1         1         1         1         1         1         1         1         1         1         1         1         1         1         1         1         1         1         1         1         1         1         1         1         1         1         1
         1         1         1         1         1         1         1         1         1         1         1         1         1         1         1         1         1         1         1         1         1         1         1         1         1         1         1         1         1         1         1         1         1         1         1         1         1         1         1         1         1         1         1         1         1         1         1         1         1         1
         1         1         1         1         1         1         1         1         1         1         1         1         1         1         1         1         1         1         1         1         1         1         1         1         1         1         1         1         1         1         1         1         1         1         1         1         1         1         1         1         1         1         1         1         1         1         1         1         1         1
         1         1         1         1         1         1         1         1         1         1         1         1         1         1         1         1         1         1         1         1         1         1         1         1         1         1         1         1         1         1         1         1         1         1         1         1         1         1         1         1         1         1         1         1         1         1         1         1         1         1
         1         1         1         1         1         1         1         1         1         1         1         1         1         1         1         1         1         1         1         1         1         1         1         1         1         1         1         1         1         1         1         1         1         1         1         1         1         1         1         1         1         1         1         1         1         1         1         1         1         1
         1         1         1         1         1         1         1         1         1         1         1         1         1         1         1         1         1         1         1         1         1         1         1         1         1         1         1         1         1         1         1         1         1         1         1         1         1         1         1         1         1         1         1         1         1         1         1         1         1         1
         1         1         1         1         1         1         1         1         1         1         1         1         1         1         1         1         1         1         1         1         1         1         1         1         1         1         1         1         1         1         1         1         1         1         1         1         1         1         1         1         1         1         1         1         1         1         1         1         1         1
         1         1         1         1         1         1         1         1         1         1         1         1         1         1         1         1         1         1         1         1         1         1         1         1         1         1         1         1         1         1         1         1         1         1         1         1         1         1         1         1         1         1         1         1         1         1         1         1         1         1
         1         1         1         1         1         1         1         1         1         1         1         1         1         1         1         1         1         1         1         1         1         1         1         1         1         1         1         1         1         1         1         1         1         1         1         1         1         1         1         1         1         1         1         1         1         1         1         1         1         1
         1         1         1         1         1         1         1         1         1         1         1         1         1         1         1         1         1         1         1         1         1         1         1         1         1         1         1         1         1         1         1         1         1         1         1         1         1         1         1         1         1         1         1         1         1         1         1         1         1         1
         1         1         1         1         1         1         1         1         1         1         1         1         1         1         1         1         1         1         1         1         1         1         1         1         1         1         1         1         1         1         1         1         1         1         1         1         1         1         1         1         1         1         1         1         1         1         1         1         1         1
         1         1         1         1         1         1         1         1         1         1         1         1         1         1         1         1         1         1         1         1         1         1         1         1         1         1         1         1         1         1         1         1         1         1         1         1         1         1         1         1         1         1         1         1         1         1         1         1         1         1
         1         1         1         1         1         1         1         1         1         1         1         1         1         1         1         1         1         1         1         1         1         1         1         1         1         1         1         1         1         1         1         1         1         1         1         1         1         1         1         1         1         1         1         1         1         1         1         1         1         1
         1         1         1         1         1         1         1         1         1         1         1         1         1         1         1         1         1         1         1         1         1         1         1         1         1         1         1         1         1         1         1         1         1         1         1         1         1         1         1         1         1         1         1         1         1         1         1         1         1         1
         1         1         1         1         1         1         1         1         1         1         1         1         1         1         1         1         1         1         1         1         1         1         1         1         1         1         1         1         1         1         1         1         1         1         1         1         1         1         1         1         1         1         1         1         1         1         1         1         1         1
         1         1         1         1         1         1         1         1         1         1         1         1         1         1         1         1         1         1         1         1         1         1         1         1         1         1         1         1         1         1         1         1         1         1         1         1         1         1         1         1         1         1         1         1         1         1         1         1         1         1
         1         1         1         1         1         1         1         1         1         1         1         1         1         1         1         1         1         1         1         1         1         1         1         1         1         1         1         1         1         1         1         1         1         1         1         1         1         1         1         1         1         1         1         1         1         1         1         1         1         1
         1         1         1         1         1         1         1         1         1         1         1         1         1         1         1         1         1         1         1         1         1         1         1         1         1         1         1         1         1         1         1         1         1         1         1         1         1         1         1         1         1         1         1         1         1         1         1         1         1         1
         1         1         1         1         1         1         1         1         1         1         1         1         1         1         1         1         1         1         1         1         1         1         1         1         1         1         1         1         1         1         1         1         1         1         1         1         1         1         1         1         1         1         1         1         1         1         1         1         1         1
         1         1         1         1         1         1         1         1         1         1         1         1         1         1         1         1         1         1         1         1         1         1         1         1         1         1         1         1         1         1         1         1         1         1         1         1         1         1         1         1         1         1         1         1         1         1         1         1         1         1
         1         1         1         1         1         1         1         1         1         1         1         1         1         1         1         1         1         1         1         1         1         1         1         1         1         1         1         1         1         1         1         1         1         1         1         1         1         1         1         1         1         1         1         1         1         1         1         1         1         1
         1         1         1         1         1         1         1         1         1         1         1         1         1         1         1         1         1         1         1         1         1         1         1         1         1         1         1         1         1         1         1         1         1         1         1         1         1         1         1         1         1         1         1         1         1         1         1         1         1         1
         1         1         1         1         1         1         1         1         1         1         1         1         1         1         1         1         1         1         1         1         1         1         1         1         1         1         1         1         1         1         1         1         1         1         1         1         1         1         1         1         1         1         1         1         1         1         1         1         1         1
         1         1         1         1         1         1         1         1         1         1         1         1         1         1         1         1         1         1         1         1         1         1         1         1         1         1         1         1         1         1         1         1         1         1         1         1         1         1         1         1         1         1         1         1         1         1         1         1         1         1
         1         1         1         1         1         1         1         1         1         1         1         1         1         1         1         1         1         1         1         1         1         1         1         1         1         1         1         1         1         1         1         1         1         1         1         1         1         1         1         1         1         1         1         1         1         1         1         1         1         1
         1         1         1         1         1         1         1         1         1         1         1         1         1         1         1         1         1         1         1         1         1         1         1         1         1         1         1         1         1         1         1         1         1         1         1         1         1         1         1         1         1         1         1         1         1         1         1         1         1         1
         1         1         1         1         1         1         1         1         1         1         1         1         1         1         1         1         1         1         1         1         1         1         1         1         1         1         1         1         1         1         1         1         1         1         1         1         1         1         1         1         1         1         1         1         1         1         1         1         1         1
         1         1         1         1         1         1         1         1         1         1         1         1         1         1         1         1         1         1         1         1         1         1         1         1         1         1         1         1         1         1         1         1         1         1         1         1         1         1         1         1         1         1         1         1         1         1         1         1         1         1
         1         1         1         1         1         1         1         1         1         1         1         1         1         1         1         1         1         1         1         1         1         1         1         1         1         1         1         1         1         1         1         1         1         1         1         1         1         1         1         1         1         1         1         1         1         1         1         1         1         1
         1         1         1         1         1         1         1         1         1         1         1         1         1         1         1         1         1         1         1         1         1         1         1         1         1         1         1         1         1         1         1         1         1         1         1         1         1         1         1         1         1         1         1         1         1         1         1         1         1         1
         1         1         1         1         1         1         1         1         1         1         1         1         1         1         1         1         1         1         1         1         1         1         1         1         1         1         1         1         1         1         1         1         1         1         1         1         1         1         1         1         1         1         1         1         1         1         1         1         1         1
         1         1         1         1         1         1         1         1         1         1         1         1         1         1         1         1         1         1         1         1         1         1         1         1         1         1         1         1         1         1         1         1         1         1         1         1         1         1         1         1         1         1         1         1         1         1         1         1         1         1
         1         1         1         1         1         1         1         1         1         1         1         1         1         1         1         1         1         1         1         1         1         1         1         1         1         1         1         1         1         1         1         1         1         1         1         1         1         1         1         1         1         1         1         1         1         1         1         1         1         1
         1         1         1         1         1         1         1         1         1         1         1         1         1         1         1         1         1         1         1         1         1         1         1         1         1         1         1         1         1         1         1         1         1         1         1         1         1         1         1         1         1         1         1         1         1         1         1         1         1         1
         1         1         1         1         1         1         1         1         1         1         1         1         1         1         1         1         1         1         1         1         1         1         1         1         1         1         1         1         1         1         1         1         1         1         1         1         1         1         1         1         1         1         1         1         1         1         1         1         1         1
         1         1         1         1         1         1         1         1         1         1         1         1         1         1         1         1         1         1         1         1         1         1         1         1         1         1         1         1         1         1         1         1         1         1         1         1         1         1         1         1         1         1         1         1         1         1         1         1         1         1
         1         1         1         1         1         1         1         1         1         1         1         1         1         1         1         1         1         1         1         1         1         1         1         1         1         1         1         1         1         1         1         1         1         1         1         1         1         1         1         1         1         1         1         1         1         1         1         1         1         1
         1         1         1         1         1         1         1         1         1         1         1         1         1         1         1         1         1         1         1         1         1         1         1         1         1         1         1         1         1         1         1         1         1         1         1         1         1         1         1         1         1         1         1         1         1         1         1         1         1         1
         1         1         1         1         1         1         1         1         1         1         1         1         1         1         1         1         1         1         1         1         1         1         1         1         1         1         1         1         1         1         1         1         1         1         1         1         1         1         1         1         1         1         1         1         1         1         1         1         1         1
         1         1         1         1         1         1         1         1         1         1         1         1         1         1         1         1         1         1         1         1         1         1         1         1         1         1         1         1         1         1         1         1         1         1         1         1         1         1         1         1         1         1         1         1         1         1         1         1         1         1
         1         1         1         1         1         1         1         1         1         1         1         1         1         1         1         1         1         1         1         1         1         1         1         1         1         1         1         1         1         1         1         1         1         1         1         1         1         1         1         1         1         1         1         1         1         1         1         1         1         1
         1         1         1         1         1         1         1         1         1         1         1         1         1         1         1         1         1         1         1         1         1         1         1         1         1         1         1         1         1         1         1         1         1         1         1         1         1         1         1         1         1         1         1         1         1         1         1         1         1         1
         1         1         1         1         1         1         1         1         1         1         1         1         1         1         1         1         1         1         1         1         1         1         1         1         1         1         1         1         1         1         1         1         1         1         1         1         1         1         1         1         1         1         1         1         1         1         1         1         1         1
         1         1         1         1         1         1         1         1         1         1         1         1         1         1         1         1         1         1         1         1         1         1         1         1         1         1         1         1         1         1         1         1         1         1         1         1         1         1         1         1         1         1         1         1         1         1         1         1         1         1
         1         1         1         1         1         1         1         1         1         1         1         1         1         1         1         1         1         1         1         1         1         1         1         1         1         1         1         1         1         1         1         1         1         1         1         1         1         1         1         1         1         1         1         1         1         1         1         1         1         1
         1         1         1         1         1         1         1         1         1         1         1         1         1         1         1         1         1         1         1         1         1         1         1         1         1         1         1         1         1         1         1         1         1         1         1         1         1         1         1         1         1         1         1         1         1         1         1         1         1         1
         1         1         1         1         1         1         1         1         1         1         1         1         1         1         1         1         1         1         1         1         1         1         1         1         1         1         1         1         1         1         1         1         1         1         1         1         1         1         1         1         1         1         1         1         1         1         1         1         1         1
         1         1         1         1         1         1         1         1         1         1         1         1         1         1         1         1         1         1         1         1         1         1         1         1         1         1         1         1         1         1         1         1         1         1         1         1         1         1         1         1         1         1         1         1         1         1         1         1         1         1
         1         1         1         1         1         1         1         1         1         1         1         1         1         1         1         1         1         1         1         1         1         1         1         1         1         1         1         1         1         1         1         1         1         1         1         1         1         1         1         1         1         1         1         1         1         1         1         1         1         1
        -999.99
INTERNAL               1  (50E15.6) -1 #strt layer 1                  
   4.499800E+01   4.499800E+01   4.499800E+01   4.499800E+01   4.499800E+01   4.499700E+01   4.499500E+01   4.499100E+01   4.499000E+01   4.499000E+01   4.499000E+01   4.499100E+01   4.499100E+01   4.499400E+01   4.499100E+01   4.498700E+01   4.498200E+01   4.498300E+01   4.498600E+01   4.498600E+01   4.498600E+01   4.499200E+01   4.499300E+01   4.499600E+01   4.499700E+01   4.499600E+01   4.499300E+01   4.499500E+01   4.499400E+01   4.499400E+01   4.499600E+01   4.499600E+01   4.499500E+01   4.499500E+01   4.499400E+01   4.499100E+01   4.499000E+01   4.498900E+01   4.498800E+01   4.498800E+01   4.498800E+01   4.498900E+01   4.498900E+01   4.498900E+01   4.498900E+01   4.498900E+01   4.499000E+01   4.499000E+01   4.499000E+01   4.499000E+01
   4.499800E+01   4.499800E+01   4.499800E+01   4.499800E+01   4.499700E+01   4.499600E+01   4.499200E+01   4.498900E+01   4.498800E+01   4.498700E+01   4.498600E+01   4.498500E+01   4.498500E+01   4.498900E+01   4.498300E+01   4.498000E+01   4.497300E+01   4.497400E+01   4.498000E+01   4.497700E+01   4.496800E+01   4.497400E+01   4.497400E+01   4.498300E+01   4.499200E+01   4.498800E+01   4.498600E+01   4.498600E+01   4.498600E+01   4.498500E+01   4.498900E+01   4.499100E+01   4.499200E+01   4.499100E+01   4.499400E+01   4.499200E+01   4.499000E+01   4.498900E+01   4.498800E+01   4.498700E+01   4.498700E+01   4.498800E+01   4.498900E+01   4.498900E+01   4.498900E+01   4.498900E+01   4.499000E+01   4.499000E+01   4.499000E+01   4.499000E+01
   4.499800E+01   4.499800E+01   4.499800E+01   4.499800E+01   4.499600E+01   4.499300E+01   4.499000E+01   4.498600E+01   4.498600E+01   4.498400E+01   4.498100E+01   4.497800E+01   4.497800E+01   4.496500E+01   4.494800E+01   4.495300E+01   4.495500E+01   4.495500E+01   4.496300E+01   4.495500E+01   4.493600E+01   4.493900E+01   4.494000E+01   4.494700E+01   4.496400E+01   4.494200E+01   4.496400E+01   4.497200E+01   4.496400E+01   4.496000E+01   4.496300E+01   4.496300E+01   4.497400E+01   4.497900E+01   4.498900E+01   4.499000E+01   4.498900E+01   4.498700E+01   4.498600E+01   4.498400E+01   4.498300E+01   4.498500E+01   4.498800E+01   4.498900E+01   4.498900E+01   4.498900E+01   4.499000E+01   4.499000E+01   4.499000E+01   4.499000E+01
   4.499800E+01   4.499800E+01   4.499800E+01   4.499700E+01   4.499300E+01   4.499000E+01   4.498600E+01   4.498300E+01   4.498300E+01   4.498000E+01   4.497600E+01   4.497200E+01   4.496200E+01   4.494000E+01   4.493200E+01   4.492900E+01   4.492400E+01   4.492100E+01   4.492100E+01   4.491400E+01   4.488000E+01   4.487700E+01   4.487000E+01   4.487300E+01   4.491000E+01   4.487900E+01   4.490000E+01   4.492000E+01   4.489700E+01   4.491000E+01   4.491100E+01   4.490800E+01   4.493500E+01   4.495800E+01   4.497600E+01   4.497900E+01   4.497900E+01   4.497800E+01   4.497900E+01   4.497900E+01   4.497700E+01   4.497700E+01   4.498500E+01   4.498900E+01   4.498900E+01   4.498900E+01   4.499000E+01   4.499000E+01   4.499000E+01   4.499000E+01
   4.499800E+01   4.499800E+01   4.499700E+01   4.499600E+01   4.499300E+01   4.498900E+01   4.498600E+01   4.498300E+01   4.498000E+01   4.497700E+01   4.497000E+01   4.495900E+01   4.493700E+01   4.492100E+01   4.491600E+01   4.490000E+01   4.487700E+01   4.487400E+01   4.487300E+01   4.485000E+01   4.478700E+01   4.476700E+01   4.474800E+01   4.476900E+01   4.480900E+01   4.475900E+01   4.476800E+01   4.478000E+01   4.479300E+01   4.483500E+01   4.485800E+01   4.486500E+01   4.489400E+01   4.493200E+01   4.495900E+01   4.496400E+01   4.495800E+01   4.495800E+01   4.496000E+01   4.496200E+01   4.496300E+01   4.496600E+01   4.497600E+01   4.498700E+01   4.498800E+01   4.498900E+01   4.499000E+01   4.499000E+01   4.499000E+01   4.499100E+01
   4.499800E+01   4.499800E+01   4.499700E+01   4.499600E+01   4.499300E+01   4.499000E+01   4.498600E+01   4.498200E+01   4.497900E+01   4.497300E+01   4.496300E+01   4.494400E+01   4.491900E+01   4.489800E+01   4.488200E+01   4.485500E+01   4.483100E+01   4.482600E+01   4.481000E+01   4.474500E+01   4.469800E+01   4.468600E+01   4.469300E+01   4.468000E+01   4.466000E+01   4.464800E+01   4.465400E+01   4.468000E+01   4.470800E+01   4.474600E+01   4.479200E+01   4.482600E+01   4.484100E+01   4.488400E+01   4.492900E+01   4.494500E+01   4.494100E+01   4.494100E+01   4.493800E+01   4.494000E+01   4.494800E+01   4.495400E+01   4.496300E+01   4.497800E+01   4.498700E+01   4.498800E+01   4.499000E+01   4.499000E+01   4.499100E+01   4.499100E+01