# UPW package for  MODFLOW-NWT, generated by Flopy.
        55    -1E+30         0         0 
         1
         0
   1.000000E+00
         0
         0
INTERNAL               1  (50E15.6) -1 #hk layer 1                    
   9.817786E+00   5.063577E+01   1.239863E+01   1.481990E+00   1.264322E+00   2.893916E+00   1.273600E+00   2.361241E+00   1.962028E+01   2.557426E+00   2.082540E+00   1.563857E+00   1.426295E+00   1.270037E+00   2.200665E+00   2.451277E+00   7.048315E+00   2.445094E+00   2.155114E+00   1.544827E+00   1.250578E+00   1.104837E+00   1.086899E+00   1.068522E+00   1.096740E+00   1.151075E+00   1.391520E+00   1.121947E+00   1.142643E+00   1.318912E+00   1.084070E+00   1.550087E+00   3.357123E+00   2.106864E+00   1.889749E+00   6.170584E+01   3.280401E+04   1.210757E+04   2.068052E+05   1.571065E+15   8.426055E+11   3.610296E+07            INF            INF            INF            INF   1.995924E+07   3.001036E+18   1.675522E+07   5.066769E+03
   5.524712E+03   2.053760E+02   1.451426E+00   1.889273E+00   1.579832E+00   1.252614E+00   3.036453E+00   7.065752E+00   5.056665E+02   6.292619E+00   8.403056E+00   1.949659E+00   3.021707E+00   1.104933E+00   1.128356E+00   1.196686E+00   3.211647E+00   2.732078E+00   1.580993E+00   1.921333E+00   1.747900E+00   1.212539E+00   1.271261E+00   1.147930E+00   1.074416E+00   1.056048E+00   1.824566E+00   1.396655E+00   1.474890E+00   1.300994E+00   1.137234E+00   1.103719E+00   1.245084E+00   1.476513E+00   1.190656E+00   2.533865E+00   5.698496E+00   7.370599E+01   1.352878E+07   1.808463E+03   6.458141E+01   1.014105E+13   1.532140E+12   3.955586E+19            INF            INF            INF   4.831934E+12            INF   1.902778E+25
   3.258884E+01   2.927437E+00   1.671947E+00   1.296496E+00   1.689464E+00   1.550778E+00   1.468550E+00   1.731973E+01   1.869780E+01   1.356422E+01   5.928583E+01   2.406259E+01   5.362564E+00   1.369928E+00   7.009610E+00   1.671171E+00   4.936987E+00   3.114496E+00   1.259621E+00   1.383709E+00   3.026799E+00   1.675824E+00   2.477162E+00   1.292803E+00   1.125041E+00   1.821902E+00   1.276071E+00   2.121598E+00   1.306540E+00   1.520465E+00   1.213161E+00   1.215504E+00   1.225366E+00   1.806200E+00   1.216454E+00   1.352341E+00   1.564278E+00   5.265110E+00   5.108597E+01   1.376006E+04   2.949948E+05   8.323919E+00   1.227865E+04   3.201996E+11            INF            INF   1.134877E+25            INF            INF   9.314390E+33
   3.562755E+04   5.282188E+00   1.972821E+00   1.150424E+00   3.659112E+00   7.257699E+00   3.010783E+01   1.606282E+19   1.059190E+02   1.282182E+01   1.490478E+01   4.132591E+01   1.605716E+00   3.191561E+00   1.344954E+01   6.822026E+00   2.632694E+00   2.986269E+00   1.504638E+00   1.649388E+00   2.362759E+00   1.439103E+00   1.358023E+00   1.491079E+00   1.201371E+00   1.596170E+00   1.244844E+00   1.126436E+00   1.383354E+00   1.718882E+00   2.036704E+00   2.501015E+00   2.150847E+00   2.414768E+00   1.267842E+00   1.933495E+00   1.388212E+00   1.631184E+00   3.977700E+00   1.145914E+01   4.435890E+02   4.306848E+01   1.263981E+02   1.326192E+17            INF   2.973765E+20   1.789787E+06   4.100672E+14   1.751809E+16   2.616644E+02
   9.508115E+00   1.553612E+00   2.132666E+00   3.002893E+00   4.041828E+00   1.843411E+01   4.835550E+01   2.968826E+12   1.919286E+08   6.139982E+03   2.346578E+02   9.015104E+00   4.109630E+00   1.069363E+01   6.121454E+02   2.920998E+00   5.741936E+00   5.378378E+00   3.929132E+00   1.315990E+00   4.573040E+00   2.285578E+00   1.873831E+01   3.422991E+00   1.158972E+00   2.777213E+00   1.500334E+00   1.563220E+00   4.860534E+00   1.790344E+00   2.024951E+00   2.332775E+02   1.723156E+00   1.728850E+00   1.453063E+00   2.368877E+00   4.495049E+00   1.094844E+01   2.118479E+00   2.105902E+00   1.019420E+02   4.469575E+03   3.955732E+00   6.010250E+02   1.607468E+05   6.734270E+31   1.209849E+09   2.617180E+06   3.576299E+09   5.504457E+00
   6.123136E+03   3.890850E+00   7.815677E+00   6.273300E+00   6.747901E+00   1.247058E+01   1.981587E+01   7.946890E+02   3.533304E+11   1.295798E+02   4.214441E+02   1.566611E+02   9.856888E+02   2.110644E+01   3.433281E+00   9.031792E+00   5.669162E+01   1.379293E+01   1.771542E+00   1.718945E+00   7.274040E+00   8.807918E+00   4.248563E+01   2.125232E+00   2.021361E+00   5.835474E+00   6.540520E+01   1.247929E+01   4.142592E+00   2.198859E+00   5.510301E+00   8.416363E+00   8.146364E+00   1.863078E+00   1.312951E+00   1.667542E+00   1.955494E+01   4.127865E+00   1.431787E+03   4.356658E+02   6.632091E+03   5.020165E+02   9.730741E+00   3.586079E+00   2.323139E+02   3.891974E+02   3.539824E+01   3.256659E+01   3.809599E+03   1.948390E+01
   2.005433E+01   1.599878E+00   8.930530E+00   6.170244E+00   7.085535E+01   4.652647E+00   2.860245E+00   5.180386E+00   7.047245E+00   5.033110E+08   9.790345E+00   3.779906E+00   6.470547E+01   4.782796E+04   3.765254E+02   3.747964E+00   2.273799E+03   1.032706E+01   2.483068E+00   1.163786E+01   8.459662E+03   7.830393E+02   9.483927E+00   6.378925E+02   1.258914E+01   4.280568E+04   2.827561E+01   5.268835E+00   5.544660E+04   1.135893E+02   9.770056E+00   2.637047E+01   1.298257E+01   2.524443E+00   2.005043E+00   2.116885E+00   2.185818E+01   2.916473E+02   5.302243E+01   6.889119E+02   4.894856E+03   4.317399E+02   3.630153E+01   3.887396E+00   3.329234E+00   1.019793E+02   2.989602E+00   4.241308E+00   8.854688E+02   4.154002E+03
   2.466986E+14   1.348823E+04   1.187685E+02   1.947647E+00   1.534677E+00   5.347773E+00   6.048979E+00   9.023476E+01   1.336340E+05   1.106765E+01   2.433945E+01   2.246206E+00   1.974131E+00   2.323151E+01   3.252669E+02   5.709166E+04   4.026125E+01   7.261331E+00   2.046492E+03   1.329794E+04   2.721917E+15   4.042058E+07   5.958093E+00   1.760427E+04   7.962399E+09   1.427063E+14   6.771595E+04   1.258349E+02   2.072459E+03   3.160251E+08   6.988532E+00   9.479256E+00   6.326759E+02   6.829824E+00   8.544921E+00   2.252133E+00   8.299660E+00   1.597771E+01   1.103642E+03   2.961541E+07   1.942901E+02   4.322151E+02   4.290481E+02   3.635894E+01   3.516350E+00   2.898831E+01   5.907224E+06   1.744727E+07   1.839583E+13   9.049546E+02
   6.872230E+31   1.833379E+03   3.091216E+04   3.160540E+00   2.200136E+00   2.094971E+00   1.866902E+00   2.002733E+01   1.419162E+01   7.465611E+00   3.991265E+00   2.318711E+00   1.913733E+00   1.475267E+02   3.038954E+01   5.980558E+03   2.339125E+03   1.833488E+02   3.738934E+02   1.404522E+01   1.524417E+04   2.775099E+03   2.753761E+03   1.131937E+16   3.521307E+07   9.079242E+07   6.225963E+32   7.493018E+01   1.345489E+03   9.115218E+03   3.322974E+00   7.728461E+03   2.020596E+02   5.626709E+00   6.230741E+00   2.704903E+01   7.604560E+00   1.160106E+01   7.223442E+05   1.055117E+17   1.501113E+05   7.882424E+03   5.438354E+01   9.095089E+00   8.204702E+00   2.053439E+02   1.182009E+04   1.016814E+03   4.912932E+01   8.436099E+00
   9.785568E+21   5.893651E+08   1.275984E+14   1.055610E+02   4.779530E+02   2.093729E+00   1.479320E+00   3.615369E+00   1.989182E+00   3.990780E+00   2.562936E+00   1.093691E+02   8.782919E+01   2.722952E+04   2.308498E+04   7.876289E+01   1.423557E+01   6.661485E+19   2.773069E+11   1.440775E+06   2.091019E+02   4.990026E+00   1.906158E+06   7.397415E+08   2.637877E+03   2.155427E+02   4.276695E+01   7.584712E+00   6.800968E+05   4.361655E+03   1.788218E+02   3.108564E+06   1.119144E+11   2.669387E+02   3.058182E+03   1.446533E+04   4.380200E+06   2.627373E+09   2.467633E+06   4.999122E+09   1.227743E+04   2.534428E+05   3.432773E+00   4.016211E+00   2.602317E+00   1.997000E+00   1.567993E+01   8.478999E+00   2.352501E+00   5.529667E+00
   3.765660E+25            INF   3.739482E+17   4.396942E+02   1.732256E+01   5.596499E+00   4.026264E+00   1.504298E+00   2.094629E+00   1.794893E+00   2.065410E+01   6.611989E+00   3.593324E+00   2.468437E+02   2.894020E+10   4.322154E+04   7.853345E+03   2.970513E+05   1.033819E+07   1.433471E+34   2.075042E+02   8.344088E+02   3.556446E+11   3.158893E+08   1.632875E+07   1.719301E+04   1.790545E+01   2.268338E+04   3.027349E+12   5.439066E+02   2.597938E+01   5.134721E+01   5.267033E+01   2.073690E+02   1.121958E+04   2.211722E+03   3.273809E+05   8.258611E+10   9.825407E+06   2.285617E+14   7.187079E+26   4.702301E+02   2.665161E+00   3.444878E+00   1.375441E+01   1.301317E+00   1.200466E+00   1.389410E+00   2.954853E+00   1.809200E+00
   8.816507E+24   3.901931E+22   9.197268E+03   1.863074E+01   2.904171E+00   5.608426E+00   2.722066E+00   1.229857E+00   1.456206E+00   2.842778E+00   1.831055E+00   1.851328E+00   2.108868E+00   1.584777E+01   7.930085E+02   2.892386E+10   3.072241E+01   4.128725E+04   2.088982E+03   9.091554E+06   1.949892E+03   8.938051E+10   5.686423E+06   2.371991E+09   4.716189E+03   2.622277E+01   4.826016E+00   8.442809E+14            INF   1.741098E+16   2.078489E+02   4.877966E+00   2.415860E+00   1.889116E+01   4.056216E+00   1.268272E+01   2.099000E+16   2.545645E+11   1.746410E+04   1.120890E+10   3.021021E+02   1.061887E+02   1.875615E+01   1.270533E+01   6.232851E+00   2.678349E+00   1.731905E+00   2.583236E+00   3.672943E+00   1.475864E+00
   1.976577E+38   1.060611E+23   2.479506E+15   6.193882E+01   3.788493E+00   5.419666E+01   2.340381E+00   1.368604E+00   1.250803E+00   2.312733E+00   1.502867E+01   1.051085E+01   4.400642E+00   2.173318E+01   2.207709E+01   1.124132E+05   1.149382E+07   1.737926E+02   2.206468E+02   6.473775E+01   7.437037E+22            INF            INF   1.164336E+10   9.604618E+03   2.099200E+19   2.795255E+02   6.554417E+15   2.382022E+17   8.350489E+02   5.618240E+00   2.194999E+00   2.378856E+00   7.180678E+00   2.987483E+00   9.325078E+06   1.392219E+06   1.202117E+03   1.120470E+09   5.879567E+02   1.736602E+02   8.844100E+00   2.685439E+01   8.412862E+00   3.310054E+02   4.123342E+02   2.989102E+00   2.141644E+00   1.473018E+01   1.281716E+00
            INF   3.494838E+11   9.462914E+00   3.690718E+00   2.800673E+00   1.218987E+01   3.596668E+00   1.344329E+00   3.676446E+00   5.989627E+00   1.944263E+00   2.655050E+00   2.623727E+00   2.549765E+00   1.833620E+01   4.410017E+00   3.709089E+04   8.097699E+13   1.094596E+04   2.823414E+09   7.127941E+15            INF            INF   7.193476E+08   2.788433E+20   6.391372E+09   1.442945E+06   8.239060E+25   3.089290E+07   2.518456E+05   1.063135E+01   2.210811E+01   1.527431E+02   3.758524E+01   2.184845E+05   3.543919E+11   1.602355E+02   1.298689E+01   3.134302E+00   1.053058E+01   6.600598E+00   9.653500E+01   8.973222E+00   8.112965E+00   6.195819E+05   4.906593E+01   2.077973E+00   4.908256E+00   9.528673E+00   1.881686E+00
   7.478369E+01   3.746015E+03   1.899624E+01   2.315678E+00   2.204745E+00   1.609802E+00   4.371210E+00   1.968707E+00   1.071040E+02   4.800790E+01   1.479614E+00   3.594002E+00   2.632828E+01   6.968993E+00   3.817736E+00   2.793416E+00   3.719540E+00   3.559954E+05   7.763572E+03   2.431535E+09   2.559528E+20            INF            INF            INF            INF            INF   2.131534E+11   4.097611E+22   9.030343E+10   1.876285E+15   6.409065E+15   8.582486E+03   2.805681E+18   8.601585E+05   3.011088E+06   2.246073E+05   2.177197E+02   2.483225E+01   2.668929E+00   7.626031E+00   1.366615E+01   3.298857E+01   3.689979E+02   2.434171E+13   1.500141E+04   8.904348E+05   1.388350E+01   2.901408E+00   3.668454E+01   3.599047E+00
   2.594526E+02   4.014348E+02   4.875587E+00   3.363538E+01   1.522772E+00   1.479946E+00   3.399266E+00   2.158225E+00   4.181304E+00   2.529737E+00   1.288042E+00   1.227383E+00   3.988017E+00   3.810647E+00   2.510778E+00   2.483385E+00   3.626247E+00   7.400630E+00   5.254290E+01   1.397425E+11            INF            INF            INF            INF            INF            INF            INF            INF            INF   2.279170E+16   4.034214E+25   1.017197E+18   8.423331E+37   1.151984E+16   2.570328E+03   7.100103E+02   1.867775E+03   1.762491E+02   3.079224E+05   3.662414E+00   6.054307E+00   2.598824E+01   5.055515E+02   9.667292E+13   2.289596E+11   2.919196E+07   3.108031E+01   3.155520E+01   7.011454E+00   2.253057E+00
   7.727123E+00   3.917314E+02   6.240807E+02   1.194354E+02   9.873358E+00   1.656507E+00   2.773821E+02   4.701527E+01   9.425609E+00   2.373350E+00   1.667582E+00   1.780556E+00   2.308842E+00   6.611464E+00   1.658917E+00   1.672674E+00   5.016661E+00   1.153575E+01   1.492218E+01   1.311418E+02   2.657187E+03   1.286158E+36            INF            INF            INF            INF            INF            INF   1.588377E+38   8.292967E+22   3.120417E+26            INF   3.165810E+26   1.398110E+09   7.438692E+01   2.125397E+01   1.016422E+06   2.527695E+05   1.566289E+22   1.041248E+20   6.941250E+07   1.417544E+05   2.311917E+03   1.288838E+05   5.621270E+01   3.716780E+00   2.345205E+01   4.325722E+05   3.295073E+03   4.044870E+00
   3.823882E+00   3.554538E+00   2.250921E+01   4.318916E+01   1.309687E+01   9.370687E+00   3.066273E+01   5.668078E+04   3.954420E+03   2.092965E+02   1.521850E+00   1.675151E+00   2.046871E+00   1.491462E+00   2.710915E+00   5.723836E+03   6.395998E+01   4.099718E+01   9.016329E+00   1.482393E+03   7.784893E+03   3.311399E+25            INF            INF            INF            INF   1.729441E+28   2.495055E+07   2.535580E+15   3.681502E+08   3.020569E+06   8.115407E+18   3.821945E+24   1.010551E+01   8.464288E+01   7.578470E+00   4.371209E+02   5.414464E+19            INF            INF   1.425141E+17   6.622230E+01   5.794564E+01   1.041283E+02   5.146146E+00   8.402966E+01   3.901677E+01   1.697246E+02   5.028347E+00   3.392343E+00
   1.700398E+00   1.544611E+00   1.732908E+00   1.334178E+00   1.626132E+00   3.744697E+00   8.239160E+01   2.578229E+01   3.499900E+09   7.413125E+00   6.804096E+00   2.728112E+00   2.778202E+00   2.350012E+00   1.969650E+01   1.535382E+02   4.059076E+02   4.508168E+03   2.774636E+00   5.276148E+01   2.761517E+15   1.211645E+13   1.859279E+20            INF            INF            INF   2.571107E+17   1.874992E+11   5.406781E+08   5.080094E+02   2.547549E+07   3.554147E+11   3.071504E+04   8.003021E+00   4.041225E+00   6.522172E+03   1.668819E+09   7.682952E+33   4.516393E+34            INF   1.955650E+22   1.783772E+01   2.150083E+04   5.653615E+06   2.401818E+02   2.899144E+01   1.414503E+01   1.231488E+00   1.396039E+00   1.186361E+00
   1.239553E+00   1.287858E+00   1.224564E+00   1.068995E+00   1.292567E+00   1.557466E+00   1.532560E+00   2.357054E+00   5.937346E+00   3.897135E+00   5.754060E+00   1.530678E+00   2.765399E+00   3.024580E+00   1.794616E+02   2.627008E+04   3.113427E+03   8.318494E+01   1.131237E+02   9.414439E+06   6.722639E+16   3.244366E+12   1.055738E+35            INF            INF   4.700814E+13   5.027293E+08   3.509799E+07   4.643012E+01   1.160520E+05   2.119292E+03   2.034641E+02   8.632396E+02   8.799582E+00   6.691107E+01   1.313985E+10   8.911701E+07   1.694894E+35   6.347700E+11   1.057703E+32   1.330007E+07   1.502291E+01   3.847885E+01   1.100322E+05   2.354077E+01   2.919711E+01   1.419872E+00   1.279862E+00   1.239157E+00   1.114305E+00
   1.344466E+00   2.233723E+00   1.540807E+00   1.154025E+00   1.065350E+00   1.219023E+00   1.084447E+00   2.697843E+00   2.308020E+00   6.052562E+00   1.305533E+01   3.116935E+00   1.119284E+02   4.635773E+00   2.720373E+01   7.116767E+02   4.013500E+06   8.304759E+03   2.218674E+04   1.695553E+23            INF   2.826482E+16   1.713198E+13   3.239322E+14   1.677588E+06   8.316890E+07   6.666678E+05   7.304726E+07   4.747415E+02   6.027396E+05   5.512727E+03   1.742390E+01   1.220482E+01   6.521458E+00   2.556293E+01   1.874860E+16   8.751840E+11   3.742497E+06   2.413567E+05   4.492020E+05   6.895318E+00   1.057036E+01   2.733261E+02   1.621319E+03   6.116996E+00   1.315979E+02   2.683572E+00   2.183619E+00   1.159425E+00   1.079435E+00
   1.826428E+00   1.451879E+00   1.754183E+00   1.153999E+00   1.041834E+00   1.009844E+00   1.092476E+00   1.340694E+00   2.816635E+00   1.549095E+01   8.816588E+00   9.887028E+00   3.209965E+02   2.232309E+05   5.856466E+00   3.415373E+08   7.018858E+03   4.508875E+09   4.944793E+05   6.910642E+31            INF   4.980247E+08   3.154117E+12   5.217230E+10   4.257817E+03   1.753842E+03   6.417363E+05   1.517523E+02   8.691507E+01   4.526067E+01   1.410964E+01   2.480672E+00   3.784742E+00   3.447765E+00   5.485878E+06   4.986978E+09   1.994805E+07   9.151378E+18   7.170018E+02   2.237702E+04   2.700159E+03   2.212975E+01   4.210164E+00   2.896782E+00   4.863775E+00   1.352625E+00   1.195083E+00   3.206707E+00   1.557838E+00   2.422856E+00
   3.866228E+00   2.015829E+00   2.427562E+00   1.082206E+00   1.029816E+00   1.010372E+00   1.072667E+00   2.092873E+00   3.622530E+00   2.414705E+00   1.549056E+01   1.659798E+01   9.264921E+00   5.403531E+00   1.934326E+01   3.541199E+06   2.138364E+09   2.107620E+02   8.685769E+02            INF            INF   6.997529E+35            INF   2.023163E+05   3.738313E+05   2.070044E+03   3.370776E+05   8.171912E+01   2.236451E+02   1.445911E+01   2.174082E+00   8.181645E+00   3.479501E+00   8.350532E+00   3.029574E+01   2.663943E+03   4.914818E+11   7.987926E+05   9.614834E+00   5.969705E+01   5.079868E+00   1.711824E+01   3.158036E+01   5.316182E+00   4.502947E+00   2.144677E+00   2.915618E+00   4.261230E+00   2.290573E+00   3.299395E+01
   1.418663E+00   8.717168E+00   1.560415E+00   1.100820E+00   1.023492E+00   1.010850E+00   1.014214E+00   1.243920E+00   1.427666E+00   2.246008E+00   5.860024E+02   2.988671E+00   5.533197E+01   1.154791E+02   1.748629E+03   7.996780E+06   5.646625E+01   7.473502E+02   4.217028E+31   9.143278E+31            INF            INF            INF   6.846699E+11   4.479659E+21   4.533031E+05   5.743275E+15   7.681006E+33   8.583132E+09   1.587600E+01   6.287370E+02   6.295246E+00   1.730101E+00   4.344180E+03   3.274104E+05   1.100253E+03   8.966276E+01   1.786274E+01   2.568808E+00   1.336625E+00   4.467402E+01   1.417656E+01   9.547989E+00   6.596359E+00   1.727248E+00   1.994434E+00   1.391793E+00   3.213445E+00   1.280552E+01   4.240429E+01
   1.137383E+00   1.041903E+00   1.089637E+00   1.073909E+00   1.032716E+00   1.005526E+00   1.005091E+00   1.020963E+00   1.183314E+00   1.979461E+00   3.919869E+00   8.258731E+01   3.791941E+05   1.320380E+02   1.926591E+27   2.004875E+16   6.661339E+20   1.886032E+04            INF            INF            INF            INF            INF   1.560864E+08   3.958106E+14   9.418467E+21            INF   7.962746E+20   5.599268E+23   2.162168E+02   1.577945E+08   2.491520E+02   1.162784E+01   5.863326E+02   7.120202E+00   2.612715E+01   2.697715E+01   5.579861E+00   1.314000E+00   1.724454E+00   7.760735E+00   1.072661E+01   3.270309E+00   3.121286E+00   1.244865E+00   2.249360E+00   1.496994E+00   3.002503E+00   2.322153E+00   1.533815E+03
   1.018480E+00   1.021731E+00   1.023790E+00   1.113434E+00   1.012819E+00   1.004732E+00   1.007197E+00   1.032587E+00   1.218980E+00   4.586867E+00   2.935255E+01   1.447262E+01   8.793931E+02   1.105550E+04   6.364821E+01   1.355460E+03   3.601545E+05   1.066766E+30            INF            INF            INF            INF            INF   1.835703E+14   1.545098E+11            INF   8.459234E+24   4.380888E+08   8.338773E+10   2.784450E+09   9.410246E+08   2.660906E+06   1.147115E+02   5.142126E+03   1.915792E+00   3.269668E+00   4.349900E+00   5.771873E+02   2.549376E+00   3.723040E+00   6.351845E+00   4.447795E+00   1.756010E+00   1.514485E+00   1.229551E+00   1.421515E+00   1.211133E+00   1.278464E+00   1.822231E+00   1.800773E+01
   1.028696E+00   1.038867E+00   1.035197E+00   1.113907E+00   1.032509E+00   1.006786E+00   1.014223E+00   1.012599E+00   1.240462E+00   9.294145E+00   1.619635E+01   3.810493E+02   2.141007E+07   1.049961E+05   4.244340E+07   2.963392E+01   4.628881E+09   1.974222E+15   9.656116E+29            INF            INF            INF   8.854768E+36   8.074468E+19            INF            INF   2.973981E+09   3.116620E+12   2.308074E+10            INF   3.782326E+02   2.036568E+01   2.686171E+00   2.891260E+00   2.355049E+00   7.071189E+00   6.929584E+00   2.681267E+01   1.869045E+04   2.695620E+01   1.346212E+00   1.190648E+00   1.838567E+00   2.100639E+00   1.231948E+00   1.282909E+00   1.207565E+00   1.143334E+00   2.121425E+00   2.129254E+01
   1.112164E+00   1.305995E+00   1.067113E+00   1.071506E+00   1.039575E+00   1.050983E+00   1.100662E+00   1.021884E+00   1.127796E+00   2.255311E+00   3.723204E+00   8.573409E+02   7.421068E+07   3.634011E+05   3.524339E+01   1.961443E+01   5.864580E+03   4.246897E+15   3.870335E+18            INF            INF            INF            INF            INF            INF            INF   4.195976E+23            INF   1.006341E+24   2.914337E+11   2.440968E+04   6.817844E+00   2.987629E+01   1.013324E+03   2.369659E+00   1.652281E+01   2.380927E+00   1.476893E+00   1.320794E+01   1.135681E+01   2.002396E+00   5.481743E+00   1.403076E+00   1.778693E+00   1.052918E+00   1.140215E+00   1.129301E+00   1.532288E+00   3.053221E+00   2.497589E+00
   1.401454E+00   1.254299E+00   1.042973E+00   1.083717E+00   1.011870E+00   1.010267E+00   1.007329E+00   1.119254E+00   2.319819E+00   2.950724E+00   2.578294E+01   1.002420E+01   5.661895E+06   1.179388E+02   1.738589E+01   1.286412E+01   3.662852E+05   2.870486E+17            INF            INF            INF            INF            INF            INF            INF            INF            INF            INF            INF            INF   2.292506E+08   1.759333E+07   3.979999E+05   3.065473E+04   2.476838E+00   6.437980E+00   4.566036E+00   2.156649E+01   2.813177E+00   1.755384E+00   7.715448E+00   2.604563E+00   1.091215E+00   1.097191E+00   1.022316E+00   1.036444E+00   1.234405E+00   1.224856E+00   1.531713E+00   1.355604E+00
   1.040945E+00   1.036976E+00   1.030015E+00   1.011193E+00   1.006757E+00   1.008921E+00   1.019834E+00   1.219030E+00   2.356931E+00   1.129884E+00   1.260574E+00   1.109449E+02   2.914255E+03   1.163364E+02   7.049516E+01   2.228549E+04   1.480440E+08            INF            INF            INF            INF            INF            INF            INF            INF            INF            INF            INF            INF            INF            INF   3.932364E+26   1.282287E+28   2.004419E+04   2.294118E+02   1.282263E+03   4.097187E+01   5.476412E+04   1.644389E+04   3.090760E+00   5.311723E+01   3.769878E+00   1.263256E+00   1.169314E+00   1.148278E+00   1.161754E+00   1.070750E+00   1.388876E+00   1.751216E+00   1.338118E+00
   1.032875E+00   1.011146E+00   1.020732E+00   1.015125E+00   1.034907E+00   1.017941E+00   1.015688E+00   1.310445E+00   2.301791E+00   1.091103E+00   1.176143E+00   2.191678E+00   4.572937E+00   4.977254E+02   3.801814E+02   1.901805E+03   1.515544E+07   4.079907E+13   5.308345E+06            INF            INF            INF            INF            INF            INF            INF            INF            INF            INF            INF            INF            INF            INF   2.688936E+08   1.903936E+16   4.098108E+05   2.994848E+09   9.654830E+07   2.601933E+09   2.240673E+03   1.317615E+02   2.282228E+01   2.145686E+00   1.198066E+00   1.167453E+00   1.143736E+00   1.429312E+00   2.133134E+00   1.999608E+00   1.292122E+00
   1.015352E+00   1.035431E+00   1.012770E+00   1.043049E+00   1.064419E+00   1.118947E+00   1.055768E+00   1.066913E+00   1.069860E+00   1.044320E+00   1.060900E+00   1.267398E+00   2.242093E+00   6.001139E+00   6.473498E+04   3.793534E+00   3.941054E+00   2.624449E+01   2.505526E+11            INF            INF            INF            INF            INF            INF            INF            INF            INF            INF            INF            INF            INF            INF            INF   1.905993E+04   3.166480E+02   1.715091E+07   8.671013E+02   7.327562E+04   1.113567E+03   3.963245E+01   1.968357E+01   1.848682E+00   1.269753E+00   1.059675E+00   1.278042E+00   1.338694E+00   2.451357E+00   1.432399E+00   1.112469E+00
   1.053693E+00   1.025461E+00   1.074811E+00   1.125525E+00   1.495921E+00   1.139275E+00   1.095458E+00   1.008229E+00   1.007244E+00   1.004621E+00   1.053529E+00   2.400622E+00   1.863188E+00   4.443887E+00   1.803215E+01   5.896492E+00   3.454981E+02   4.754034E+01   4.573574E+05   2.443863E+30            INF            INF            INF            INF            INF   7.234449E+28            INF            INF            INF            INF            INF            INF   7.041724E+24   1.279640E+28   5.972109E+10   1.410816E+05   7.721870E+02   1.188386E+09   2.280125E+05   1.182817E+04   3.067124E+06   4.242278E+01   1.907221E+00   1.228026E+00   1.403998E+00   6.187955E+00   4.334872E+01   1.191449E+01   2.627484E+00   7.421588E+00
   1.183872E+00   1.304045E+00   1.433002E+00   1.403557E+00   1.742728E+00   1.176293E+00   1.048391E+00   1.031308E+00   1.015001E+00   1.028497E+00   1.188414E+00   1.374042E+00   1.437812E+00   3.710813E+00   1.948390E+02   2.542228E+01   1.230823E+02   5.900731E+02   1.943049E+01   8.143232E+06            INF            INF            INF            INF            INF            INF            INF            INF            INF            INF            INF            INF   3.042221E+12   2.639120E+10   1.517823E+03   9.188700E+04   3.311471E+01   6.895553E+05   4.684060E+04   4.039344E+02   2.102313E+02   1.834443E+00   1.855791E+00   1.260300E+00   1.256028E+00   1.756381E+02   3.857410E+01   1.567408E+01   3.972663E+01   1.835323E+00
   2.667782E+00   1.982800E+00   1.240599E+00   1.328329E+00   1.701465E+00   1.059634E+00   1.027674E+00   1.021321E+00   1.059957E+00   1.038172E+00   1.317866E+00   1.111190E+00   1.174937E+00   1.151139E+00   1.152761E+00   1.473678E+01   4.504314E+01   9.320148E+04   7.587789E+01   1.014728E+05   3.079691E+22   2.086549E+23            INF            INF            INF            INF            INF            INF            INF            INF            INF            INF   2.815934E+10   2.892832E+12   9.546296E+04   2.882298E+02   1.163308E+06   1.751351E+08   1.176886E+01   1.457855E+00   1.723114E+00   2.378977E+00   1.546137E+00   1.243950E+00   1.533932E+00   5.453173E+00   1.149417E+01   1.750083E+00   2.060641E+00   1.275676E+00
   1.522177E+00   1.099546E+00   1.200482E+00   1.167762E+00   1.031605E+00   1.034460E+00   1.028005E+00   1.030980E+00   1.060565E+00   1.026485E+00   1.074194E+00   1.039178E+00   1.108005E+00   1.599096E+00   1.341424E+00   1.257790E+00   1.778709E+00   6.780769E+00   2.444480E+03   4.511164E+03   3.099639E+13            INF            INF            INF            INF            INF            INF            INF            INF            INF            INF   9.766653E+21   5.784472E+34   6.656367E+12   2.053635E+17   1.163213E+01   1.024166E+01   3.255692E+01   1.479064E+00   1.367927E+00   1.177484E+00   1.051791E+00   1.444622E+00   8.537021E+00   8.969070E+00   3.858135E+00   1.716367E+00   1.376334E+00   1.278261E+00   1.763233E+00
   1.594219E+00   1.125162E+00   1.286954E+00   1.191539E+00   1.093076E+00   1.097149E+00   1.034822E+00   1.012807E+00   1.030418E+00   1.101568E+00   1.132541E+00   1.045271E+00   1.078300E+00   2.019465E+00   5.131115E+00   6.456925E+00   5.752889E+00   1.183522E+01   7.108459E+01   1.397431E+03            INF            INF            INF            INF            INF            INF            INF            INF            INF            INF            INF            INF            INF   4.082441E+08   2.502937E+01   5.758476E+00   6.676723E+00   1.150867E+00   1.230903E+00   1.093424E+00   1.048015E+00   1.155577E+00   2.730901E+00   4.237344E+04   4.663436E+00   1.670142E+01   1.356555E+00   1.875835E+00   2.884633E+00   1.251703E+00
   1.409435E+00   1.111865E+00   1.150610E+00   1.185307E+00   1.081981E+00   1.095160E+00   1.014017E+00   1.006861E+00   1.018259E+00   1.115900E+00   1.169061E+00   1.233896E+00   1.223160E+00   8.242579E+00   3.543810E+02   2.587301E+01   8.235089E+01   5.643879E+03   2.751775E+01   3.497334E+08            INF            INF            INF            INF            INF            INF            INF            INF            INF            INF            INF            INF   3.772104E+07   3.945359E+07   3.314030E+01   2.115130E+00   1.794737E+00   1.759700E+00   2.467804E+00   1.318385E+00   2.474291E+00   2.116443E+00   4.223422E+00   7.998949E+00   3.010315E+00   4.139266E+00   4.450966E+00   2.879344E+00   3.054152E+01   1.930027E+00
   1.670070E+00   1.254636E+00   1.705865E+00   1.624465E+00   1.917167E+00   1.171170E+00   1.102122E+00   1.063636E+00   1.124722E+00   1.128681E+00   1.124864E+00   1.252629E+00   1.168880E+00   4.047173E+00   3.998267E+07   4.097074E+03   7.284650E+09   2.586406E+03   2.371112E+02   3.295199E+02            INF            INF            INF            INF            INF            INF            INF            INF            INF            INF            INF            INF   2.344192E+20            INF   5.015741E+01   3.902124E+00   3.079326E+00   3.280537E+01   2.443600E+01   2.850659E+00   9.197182E+00   2.895109E+00   4.806920E+00   1.875191E+00   4.106357E+00   1.059703E+03   1.482617E+07   7.141700E+00   4.132308E+00   1.465107E+00