# HOB package for  MODFLOW-NWT, generated by Flopy.
       490         0         0        52     -9999
         1
HO_0                    1          6          6        -10                  0.0     0.0000     0.0000     0.0000   # DATASET 3 - Observation 1
         1                                                                                                         # DATASET 5 - Observation 1
HO_0.1                  1                  0.0     0.0000                                                          # DATASET 6 - Observation 1.1
HO_0.2                  2                  0.0     0.0000                                                          # DATASET 6 - Observation 1.2
HO_0.3                  2                  1.0     0.0000                                                          # DATASET 6 - Observation 1.3
HO_0.4                  2                  2.0     0.0000                                                          # DATASET 6 - Observation 1.4
HO_0.5                  2                  3.0     0.0000                                                          # DATASET 6 - Observation 1.5
HO_0.6                  2                  4.0     0.0000                                                          # DATASET 6 - Observation 1.6
HO_0.7                  2                  5.0     0.0000                                                          # DATASET 6 - Observation 1.7
HO_0.8                  2                  6.0     0.0000                                                          # DATASET 6 - Observation 1.8
HO_0.9                  2                  7.0     0.0000                                                          # DATASET 6 - Observation 1.9
HO_0.10                 2                  8.0     0.0000                                                          # DATASET 6 - Observation 1.10
HO_1                    1         13          6        -10                  0.0     0.0000     0.0000     0.0000   # DATASET 3 - Observation 2
         1                                                                                                         # DATASET 5 - Observation 2
HO_1.1                  1                  0.0     0.0000                                                          # DATASET 6 - Observation 2.1
HO_1.2                  2                  0.0     0.0000                                                          # DATASET 6 - Observation 2.2
HO_1.3                  2                  1.0     0.0000                                                          # DATASET 6 - Observation 2.3
HO_1.4                  2                  2.0     0.0000                                                          # DATASET 6 - Observation 2.4
HO_1.5                  2                  3.0     0.0000                                                          # DATASET 6 - Observation 2.5
HO_1.6                  2                  4.0     0.0000                                                          # DATASET 6 - Observation 2.6
HO_1.7                  2                  5.0     0.0000                                                          # DATASET 6 - Observation 2.7
HO_1.8                  2                  6.0     0.0000                                                          # DATASET 6 - Observation 2.8
HO_1.9                  2                  7.0     0.0000                                                          # DATASET 6 - Observation 2.9
HO_1.10                 2                  8.0     0.0000                                                          # DATASET 6 - Observation 2.10
HO_2                    1         20          6        -10                  0.0     0.0000     0.0000     0.0000   # DATASET 3 - Observation 3
         1                                                                                                         # DATASET 5 - Observation 3
HO_2.1                  1                  0.0     0.0000                                                          # DATASET 6 - Observation 3.1
HO_2.2                  2                  0.0     0.0000                                                          # DATASET 6 - Observation 3.2
HO_2.3                  2                  1.0     0.0000                                                          # DATASET 6 - Observation 3.3
HO_2.4                  2                  2.0     0.0000                                                          # DATASET 6 - Observation 3.4
HO_2.5                  2                  3.0     0.0000                                                          # DATASET 6 - Observation 3.5
HO_2.6                  2                  4.0     0.0000                                                          # DATASET 6 - Observation 3.6
HO_2.7                  2                  5.0     0.0000                                                          # DATASET 6 - Observation 3.7
HO_2.8                  2                  6.0     0.0000                                                          # DATASET 6 - Observation 3.8
HO_2.9                  2                  7.0     0.0000                                                          # DATASET 6 - Observation 3.9
HO_2.10                 2                  8.0     0.0000                                                          # DATASET 6 - Observation 3.10
HO_3                    1         27          6        -10                  0.0     0.0000     0.0000     0.0000   # DATASET 3 - Observation 4
         1                                                                                                         # DATASET 5 - Observation 4
HO_3.1                  1                  0.0     0.0000                                                          # DATASET 6 - Observation 4.1
HO_3.2                  2                  0.0     0.0000                                                          # DATASET 6 - Observation 4.2
HO_3.3                  2                  1.0     0.0000                                                          # DATASET 6 - Observation 4.3
HO_3.4                  2                  2.0     0.0000                                                          # DATASET 6 - Observation 4.4
HO_3.5                  2                  3.0     0.0000                                                          # DATASET 6 - Observation 4.5
HO_3.6                  2                  4.0     0.0000                                                          # DATASET 6 - Observation 4.6
HO_3.7                  2                  5.0     0.0000                                                          # DATASET 6 - Observation 4.7
HO_3.8                  2                  6.0     0.0000                                                          # DATASET 6 - Observation 4.8
HO_3.9                  2                  7.0     0.0000                                                          # DATASET 6 - Observation 4.9
HO_3.10                 2                  8.0     0.0000                                                          # DATASET 6 - Observation 4.10
HO_4                    1         34          6        -10                  0.0     0.0000     0.0000     0.0000   # DATASET 3 - Observation 5
         1                                                                                                         # DATASET 5 - Observation 5
HO_4.1                  1                  0.0     0.0000                                                          # DATASET 6 - Observation 5.1
HO_4.2                  2                  0.0     0.0000                                                          # DATASET 6 - Observation 5.2
HO_4.3                  2                  1.0     0.0000                                                          # DATASET 6 - Observation 5.3
HO_4.4                  2                  2.0     0.0000                                                          # DATASET 6 - Observation 5.4
HO_4.5                  2                  3.0     0.0000                                                          # DATASET 6 - Observation 5.5
HO_4.6                  2                  4.0     0.0000                                                          # DATASET 6 - Observation 5.6
HO_4.7                  2                  5.0     0.0000                                                          # DATASET 6 - Observation 5.7
HO_4.8                  2                  6.0     0.0000                                                          # DATASET 6 - Observation 5.8
HO_4.9                  2                  7.0     0.0000                                                          # DATASET 6 - Observation 5.9
HO_4.10                 2                  8.0     0.0000                                                          # DATASET 6 - Observation 5.10
HO_5                    1         41          6        -10                  0.0     0.0000     0.0000     0.0000   # DATASET 3 - Observation 6
         1                                                                                                         # DATASET 5 - Observation 6
HO_5.1                  1                  0.0     0.0000                                                          # DATASET 6 - Observation 6.1
HO_5.2                  2                  0.0     0.0000                                                          # DATASET 6 - Observation 6.2
HO_5.3                  2                  1.0     0.0000                                                          # DATASET 6 - Observation 6.3
HO_5.4                  2                  2.0     0.0000                                                          # DATASET 6 - Observation 6.4
HO_5.5                  2                  3.0     0.0000                                                          # DATASET 6 - Observation 6.5
HO_5.6                  2                  4.0     0.0000                                                          # DATASET 6 - Observation 6.6
HO_5.7                  2                  5.0     0.0000                                                          # DATASET 6 - Observation 6.7
HO_5.8                  2                  6.0     0.0000                                                          # DATASET 6 - Observation 6.8
HO_5.9                  2                  7.0     0.0000                                                          # DATASET 6 - Observation 6.9
HO_5.10                 2                  8.0     0.0000                                                          # DATASET 6 - Observation 6.10
HO_6                    1         48          6        -10                  0.0     0.0000     0.0000     0.0000   # DATASET 3 - Observation 7
         1                                                                                                         # DATASET 5 - Observation 7
HO_6.1                  1                  0.0     0.0000                                                          # DATASET 6 - Observation 7.1
HO_6.2                  2                  0.0     0.0000                                                          # DATASET 6 - Observation 7.2
HO_6.3                  2                  1.0     0.0000                                                          # DATASET 6 - Observation 7.3
HO_6.4                  2                  2.0     0.0000                                                          # DATASET 6 - Observation 7.4
HO_6.5                  2                  3.0     0.0000                                                          # DATASET 6 - Observation 7.5
HO_6.6                  2                  4.0     0.0000                                                          # DATASET 6 - Observation 7.6
HO_6.7                  2                  5.0     0.0000                                                          # DATASET 6 - Observation 7.7
HO_6.8                  2                  6.0     0.0000                                                          # DATASET 6 - Observation 7.8
HO_6.9                  2                  7.0     0.0000                                                          # DATASET 6 - Observation 7.9
HO_6.10                 2                  8.0     0.0000                                                          # DATASET 6 - Observation 7.10
HO_7                    1          6         13        -10                  0.0     0.0000     0.0000     0.0000   # DATASET 3 - Observation 8
         1                                                                                                         # DATASET 5 - Observation 8
HO_7.1                  1                  0.0     0.0000                                                          # DATASET 6 - Observation 8.1
HO_7.2                  2                  0.0     0.0000                                                          # DATASET 6 - Observation 8.2
HO_7.3                  2                  1.0     0.0000                                                          # DATASET 6 - Observation 8.3
HO_7.4                  2                  2.0     0.0000                                                          # DATASET 6 - Observation 8.4
HO_7.5                  2                  3.0     0.0000                                                          # DATASET 6 - Observation 8.5
HO_7.6                  2                  4.0     0.0000                                                          # DATASET 6 - Observation 8.6
HO_7.7                  2                  5.0     0.0000                                                          # DATASET 6 - Observation 8.7
HO_7.8                  2                  6.0     0.0000                                                          # DATASET 6 - Observation 8.8
HO_7.9                  2                  7.0     0.0000                                                          # DATASET 6 - Observation 8.9
HO_7.10                 2                  8.0     0.0000                                                          # DATASET 6 - Observation 8.10
HO_8                    1         13         13        -10                  0.0     0.0000     0.0000     0.0000   # DATASET 3 - Observation 9
         1                                                                                                         # DATASET 5 - Observation 9
HO_8.1                  1                  0.0     0.0000                                                          # DATASET 6 - Observation 9.1
HO_8.2                  2                  0.0     0.0000                                                          # DATASET 6 - Observation 9.2
HO_8.3                  2                  1.0     0.0000                                                          # DATASET 6 - Observation 9.3
HO_8.4                  2                  2.0     0.0000                                                          # DATASET 6 - Observation 9.4
HO_8.5                  2                  3.0     0.0000                                                          # DATASET 6 - Observation 9.5
HO_8.6                  2                  4.0     0.0000                                                          # DATASET 6 - Observation 9.6
HO_8.7                  2                  5.0     0.0000                                                          # DATASET 6 - Observation 9.7
HO_8.8                  2                  6.0     0.0000                                                          # DATASET 6 - Observation 9.8
HO_8.9                  2                  7.0     0.0000                                                          # DATASET 6 - Observation 9.9
HO_8.10                 2                  8.0     0.0000                                                          # DATASET 6 - Observation 9.10
HO_9                    1         20         13        -10                  0.0     0.0000     0.0000     0.0000   # DATASET 3 - Observation 10
         1                                                                                                         # DATASET 5 - Observation 10
HO_9.1                  1                  0.0     0.0000                                                          # DATASET 6 - Observation 10.1
HO_9.2                  2                  0.0     0.0000                                                          # DATASET 6 - Observation 10.2
HO_9.3                  2                  1.0     0.0000                                                          # DATASET 6 - Observation 10.3
HO_9.4                  2                  2.0     0.0000                                                          # DATASET 6 - Observation 10.4
HO_9.5                  2                  3.0     0.0000                                                          # DATASET 6 - Observation 10.5
HO_9.6                  2                  4.0     0.0000                                                          # DATASET 6 - Observation 10.6
HO_9.7                  2                  5.0     0.0000                                                          # DATASET 6 - Observation 10.7
HO_9.8                  2                  6.0     0.0000                                                          # DATASET 6 - Observation 10.8
HO_9.9                  2                  7.0     0.0000                                                          # DATASET 6 - Observation 10.9
HO_9.10                 2                  8.0     0.0000                                                          # DATASET 6 - Observation 10.10
HO_10                   1         27         13        -10                  0.0     0.0000     0.0000     0.0000   # DATASET 3 - Observation 11
         1                                                                                                         # DATASET 5 - Observation 11
HO_10.1                 1                  0.0     0.0000                                                          # DATASET 6 - Observation 11.1
HO_10.2                 2                  0.0     0.0000                                                          # DATASET 6 - Observation 11.2
HO_10.3                 2                  1.0     0.0000                                                          # DATASET 6 - Observation 11.3
HO_10.4                 2                  2.0     0.0000                                                          # DATASET 6 - Observation 11.4
HO_10.5                 2                  3.0     0.0000                                                          # DATASET 6 - Observation 11.5
HO_10.6                 2                  4.0     0.0000                                                          # DATASET 6 - Observation 11.6
HO_10.7                 2                  5.0     0.0000                                                          # DATASET 6 - Observation 11.7
HO_10.8                 2                  6.0     0.0000                                                          # DATASET 6 - Observation 11.8
HO_10.9                 2                  7.0     0.0000                                                          # DATASET 6 - Observation 11.9
HO_10.10                2                  8.0     0.0000                                                          # DATASET 6 - Observation 11.10
HO_11                   1         34         13        -10                  0.0     0.0000     0.0000     0.0000   # DATASET 3 - Observation 12
         1                                                                                                         # DATASET 5 - Observation 12
HO_11.1                 1                  0.0     0.0000                                                          # DATASET 6 - Observation 12.1
HO_11.2                 2                  0.0     0.0000                                                          # DATASET 6 - Observation 12.2
HO_11.3                 2                  1.0     0.0000                                                          # DATASET 6 - Observation 12.3
HO_11.4                 2                  2.0     0.0000                                                          # DATASET 6 - Observation 12.4
HO_11.5                 2                  3.0     0.0000                                                          # DATASET 6 - Observation 12.5
HO_11.6                 2                  4.0     0.0000                                                          # DATASET 6 - Observation 12.6
HO_11.7                 2                  5.0     0.0000                                                          # DATASET 6 - Observation 12.7
HO_11.8                 2                  6.0     0.0000                                                          # DATASET 6 - Observation 12.8
HO_11.9                 2                  7.0     0.0000                                                          # DATASET 6 - Observation 12.9
HO_11.10                2                  8.0     0.0000                                                          # DATASET 6 - Observation 12.10
HO_12                   1         41         13        -10                  0.0     0.0000     0.0000     0.0000   # DATASET 3 - Observation 13
         1                                                                                                         # DATASET 5 - Observation 13
HO_12.1                 1                  0.0     0.0000                                                          # DATASET 6 - Observation 13.1
HO_12.2                 2                  0.0     0.0000                                                          # DATASET 6 - Observation 13.2
HO_12.3                 2                  1.0     0.0000                                                          # DATASET 6 - Observation 13.3
HO_12.4                 2                  2.0     0.0000                                                          # DATASET 6 - Observation 13.4
HO_12.5                 2                  3.0     0.0000                                                          # DATASET 6 - Observation 13.5
HO_12.6                 2                  4.0     0.0000                                                          # DATASET 6 - Observation 13.6
HO_12.7                 2                  5.0     0.0000                                                          # DATASET 6 - Observation 13.7
HO_12.8                 2                  6.0     0.0000                                                          # DATASET 6 - Observation 13.8
HO_12.9                 2                  7.0     0.0000                                                          # DATASET 6 - Observation 13.9
HO_12.10                2                  8.0     0.0000                                                          # DATASET 6 - Observation 13.10
HO_13                   1         48         13        -10                  0.0     0.0000     0.0000     0.0000   # DATASET 3 - Observation 14
         1                                                                                                         # DATASET 5 - Observation 14
HO_13.1                 1                  0.0     0.0000                                                          # DATASET 6 - Observation 14.1
HO_13.2                 2                  0.0     0.0000                                                          # DATASET 6 - Observation 14.2
HO_13.3                 2                  1.0     0.0000                                                          # DATASET 6 - Observation 14.3
HO_13.4                 2                  2.0     0.0000                                                          # DATASET 6 - Observation 14.4
HO_13.5                 2                  3.0     0.0000                                                          # DATASET 6 - Observation 14.5
HO_13.6                 2                  4.0     0.0000                                                          # DATASET 6 - Observation 14.6
HO_13.7                 2                  5.0     0.0000                                                          # DATASET 6 - Observation 14.7
HO_13.8                 2                  6.0     0.0000                                                          # DATASET 6 - Observation 14.8
HO_13.9                 2                  7.0     0.0000                                                          # DATASET 6 - Observation 14.9
HO_13.10                2                  8.0     0.0000                                                          # DATASET 6 - Observation 14.10
HO_14                   1          6         20        -10                  0.0     0.0000     0.0000     0.0000   # DATASET 3 - Observation 15
         1                                                                                                         # DATASET 5 - Observation 15
HO_14.1                 1                  0.0     0.0000                                                          # DATASET 6 - Observation 15.1
HO_14.2                 2                  0.0     0.0000                                                          # DATASET 6 - Observation 15.2
HO_14.3                 2                  1.0     0.0000                                                          # DATASET 6 - Observation 15.3
HO_14.4                 2                  2.0     0.0000                                                          # DATASET 6 - Observation 15.4
HO_14.5                 2                  3.0     0.0000                                                          # DATASET 6 - Observation 15.5
HO_14.6                 2                  4.0     0.0000                                                          # DATASET 6 - Observation 15.6
HO_14.7                 2                  5.0     0.0000                                                          # DATASET 6 - Observation 15.7
HO_14.8                 2                  6.0     0.0000                                                          # DATASET 6 - Observation 15.8
HO_14.9                 2                  7.0     0.0000                                                          # DATASET 6 - Observation 15.9
HO_14.10                2                  8.0     0.0000                                                          # DATASET 6 - Observation 15.10
HO_15                   1         13         20        -10                  0.0     0.0000     0.0000     0.0000   # DATASET 3 - Observation 16
         1                                                                                                         # DATASET 5 - Observation 16
HO_15.1                 1                  0.0     0.0000                                                          # DATASET 6 - Observation 16.1
HO_15.2                 2                  0.0     0.0000                                                          # DATASET 6 - Observation 16.2
HO_15.3                 2                  1.0     0.0000                                                          # DATASET 6 - Observation 16.3
HO_15.4                 2                  2.0     0.0000                                                          # DATASET 6 - Observation 16.4
HO_15.5                 2                  3.0     0.0000                                                          # DATASET 6 - Observation 16.5
HO_15.6                 2                  4.0     0.0000                                                          # DATASET 6 - Observation 16.6
HO_15.7                 2                  5.0     0.0000                                                          # DATASET 6 - Observation 16.7
HO_15.8                 2                  6.0     0.0000                                                          # DATASET 6 - Observation 16.8
HO_15.9                 2                  7.0     0.0000                                                          # DATASET 6 - Observation 16.9
HO_15.10                2                  8.0     0.0000                                                          # DATASET 6 - Observation 16.10
HO_16                   1         20         20        -10                  0.0     0.0000     0.0000     0.0000   # DATASET 3 - Observation 17
         1                                                                                                         # DATASET 5 - Observation 17
HO_16.1                 1                  0.0     0.0000                                                          # DATASET 6 - Observation 17.1
HO_16.2                 2                  0.0     0.0000                                                          # DATASET 6 - Observation 17.2
HO_16.3                 2                  1.0     0.0000                                                          # DATASET 6 - Observation 17.3
HO_16.4                 2                  2.0     0.0000                                                          # DATASET 6 - Observation 17.4
HO_16.5                 2                  3.0     0.0000                                                          # DATASET 6 - Observation 17.5
HO_16.6                 2                  4.0     0.0000                                                          # DATASET 6 - Observation 17.6
HO_16.7                 2                  5.0     0.0000                                                          # DATASET 6 - Observation 17.7
HO_16.8                 2                  6.0     0.0000                                                          # DATASET 6 - Observation 17.8
HO_16.9                 2                  7.0     0.0000                                                          # DATASET 6 - Observation 17.9
HO_16.10                2                  8.0     0.0000                                                          # DATASET 6 - Observation 17.10
HO_17                   1         27         20        -10                  0.0     0.0000     0.0000     0.0000   # DATASET 3 - Observation 18