pcf
* control data
             restart          estimation
      2500      2009         1         0         1         0
         1         1              single               point         1         0         0          noobsreref
   2.000000E+01  -3.000000E+00   3.000000E-01   1.000000E-02        -7       999          lamforgive        noderforgive
   1.000000E+01   1.000000E+01   1.000000E-03         0         0
   1.000000E-01         1   1.100000E+00               noaui          nosenreuse        noboundscale
         0   1.000000E-02         3         3   1.000000E-02         3   0.000000E+00         1  -1.000000E+00
         0         0         0         0             jcosave          verboserec          jcosaveitn          reisaveitn          parsaveitn        noparsaverun
* singular value decomposition
         1
  10000000    1.000000E-06
1
* parameter groups
pargp                   relative              1.0000000000E-02       0.0  switch                2.0000000000E+00       parabolic             1.0000000000E-05      5.0000000000E-01       smaller
* parameter data
kh_l0_r0_c0            log                    factor                1.0000000000E+00      1.1000000000E-10      1.1000000000E+10       pargp                 1.0000000000E+00      0.0000000000E+00      1          
kh_l0_r0_c1            log                    factor                1.0000000000E+00      1.1000000000E-10      1.1000000000E+10       pargp                 1.0000000000E+00      0.0000000000E+00      1          
kh_l0_r0_c10           log                    factor                1.0000000000E+00      1.1000000000E-10      1.1000000000E+10       pargp                 1.0000000000E+00      0.0000000000E+00      1          
kh_l0_r0_c11           log                    factor                1.0000000000E+00      1.1000000000E-10      1.1000000000E+10       pargp                 1.0000000000E+00      0.0000000000E+00      1          
kh_l0_r0_c12           log                    factor                1.0000000000E+00      1.1000000000E-10      1.1000000000E+10       pargp                 1.0000000000E+00      0.0000000000E+00      1          
kh_l0_r0_c13           log                    factor                1.0000000000E+00      1.1000000000E-10      1.1000000000E+10       pargp                 1.0000000000E+00      0.0000000000E+00      1          
kh_l0_r0_c14           log                    factor                1.0000000000E+00      1.1000000000E-10      1.1000000000E+10       pargp                 1.0000000000E+00      0.0000000000E+00      1          
kh_l0_r0_c15           log                    factor                1.0000000000E+00      1.1000000000E-10      1.1000000000E+10       pargp                 1.0000000000E+00      0.0000000000E+00      1          
kh_l0_r0_c16           log                    factor                1.0000000000E+00      1.1000000000E-10      1.1000000000E+10       pargp                 1.0000000000E+00      0.0000000000E+00      1          
kh_l0_r0_c17           log                    factor                1.0000000000E+00      1.1000000000E-10      1.1000000000E+10       pargp                 1.0000000000E+00      0.0000000000E+00      1          
kh_l0_r0_c18           log                    factor                1.0000000000E+00      1.1000000000E-10      1.1000000000E+10       pargp                 1.0000000000E+00      0.0000000000E+00      1          
kh_l0_r0_c19           log                    factor                1.0000000000E+00      1.1000000000E-10      1.1000000000E+10       pargp                 1.0000000000E+00      0.0000000000E+00      1          
kh_l0_r0_c2            log                    factor                1.0000000000E+00      1.1000000000E-10      1.1000000000E+10       pargp                 1.0000000000E+00      0.0000000000E+00      1          
kh_l0_r0_c20           log                    factor                1.0000000000E+00      1.1000000000E-10      1.1000000000E+10       pargp                 1.0000000000E+00      0.0000000000E+00      1          
kh_l0_r0_c21           log                    factor                1.0000000000E+00      1.1000000000E-10      1.1000000000E+10       pargp                 1.0000000000E+00      0.0000000000E+00      1          
kh_l0_r0_c22           log                    factor                1.0000000000E+00      1.1000000000E-10      1.1000000000E+10       pargp                 1.0000000000E+00      0.0000000000E+00      1          
kh_l0_r0_c23           log                    factor                1.0000000000E+00      1.1000000000E-10      1.1000000000E+10       pargp                 1.0000000000E+00      0.0000000000E+00      1          
kh_l0_r0_c24           log                    factor                1.0000000000E+00      1.1000000000E-10      1.1000000000E+10       pargp                 1.0000000000E+00      0.0000000000E+00      1          
kh_l0_r0_c25           log                    factor                1.0000000000E+00      1.1000000000E-10      1.1000000000E+10       pargp                 1.0000000000E+00      0.0000000000E+00      1          
kh_l0_r0_c26           log                    factor                1.0000000000E+00      1.1000000000E-10      1.1000000000E+10       pargp                 1.0000000000E+00      0.0000000000E+00      1          
kh_l0_r0_c27           log                    factor                1.0000000000E+00      1.1000000000E-10      1.1000000000E+10       pargp                 1.0000000000E+00      0.0000000000E+00      1          
kh_l0_r0_c28           log                    factor                1.0000000000E+00      1.1000000000E-10      1.1000000000E+10       pargp                 1.0000000000E+00      0.0000000000E+00      1          
kh_l0_r0_c29           log                    factor                1.0000000000E+00      1.1000000000E-10      1.1000000000E+10       pargp                 1.0000000000E+00      0.0000000000E+00      1          
kh_l0_r0_c3            log                    factor                1.0000000000E+00      1.1000000000E-10      1.1000000000E+10       pargp                 1.0000000000E+00      0.0000000000E+00      1          
kh_l0_r0_c30           log                    factor                1.0000000000E+00      1.1000000000E-10      1.1000000000E+10       pargp                 1.0000000000E+00      0.0000000000E+00      1          
kh_l0_r0_c31           log                    factor                1.0000000000E+00      1.1000000000E-10      1.1000000000E+10       pargp                 1.0000000000E+00      0.0000000000E+00      1          
kh_l0_r0_c32           log                    factor                1.0000000000E+00      1.1000000000E-10      1.1000000000E+10       pargp                 1.0000000000E+00      0.0000000000E+00      1          
kh_l0_r0_c33           log                    factor                1.0000000000E+00      1.1000000000E-10      1.1000000000E+10       pargp                 1.0000000000E+00      0.0000000000E+00      1          
kh_l0_r0_c34           log                    factor                1.0000000000E+00      1.1000000000E-10      1.1000000000E+10       pargp                 1.0000000000E+00      0.0000000000E+00      1          
kh_l0_r0_c35           log                    factor                1.0000000000E+00      1.1000000000E-10      1.1000000000E+10       pargp                 1.0000000000E+00      0.0000000000E+00      1          
kh_l0_r0_c36           log                    factor                1.0000000000E+00      1.1000000000E-10      1.1000000000E+10       pargp                 1.0000000000E+00      0.0000000000E+00      1          
kh_l0_r0_c37           log                    factor                1.0000000000E+00      1.1000000000E-10      1.1000000000E+10       pargp                 1.0000000000E+00      0.0000000000E+00      1          
kh_l0_r0_c38           log                    factor                1.0000000000E+00      1.1000000000E-10      1.1000000000E+10       pargp                 1.0000000000E+00      0.0000000000E+00      1          
kh_l0_r0_c39           log                    factor                1.0000000000E+00      1.1000000000E-10      1.1000000000E+10       pargp                 1.0000000000E+00      0.0000000000E+00      1          
kh_l0_r0_c4            log                    factor                1.0000000000E+00      1.1000000000E-10      1.1000000000E+10       pargp                 1.0000000000E+00      0.0000000000E+00      1          
kh_l0_r0_c40           log                    factor                1.0000000000E+00      1.1000000000E-10      1.1000000000E+10       pargp                 1.0000000000E+00      0.0000000000E+00      1          
kh_l0_r0_c41           log                    factor                1.0000000000E+00      1.1000000000E-10      1.1000000000E+10       pargp                 1.0000000000E+00      0.0000000000E+00      1          
kh_l0_r0_c42           log                    factor                1.0000000000E+00      1.1000000000E-10      1.1000000000E+10       pargp                 1.0000000000E+00      0.0000000000E+00      1          
kh_l0_r0_c43           log                    factor                1.0000000000E+00      1.1000000000E-10      1.1000000000E+10       pargp                 1.0000000000E+00      0.0000000000E+00      1          
kh_l0_r0_c44           log                    factor                1.0000000000E+00      1.1000000000E-10      1.1000000000E+10       pargp                 1.0000000000E+00      0.0000000000E+00      1          
kh_l0_r0_c45           log                    factor                1.0000000000E+00      1.1000000000E-10      1.1000000000E+10       pargp                 1.0000000000E+00      0.0000000000E+00      1          
kh_l0_r0_c46           log                    factor                1.0000000000E+00      1.1000000000E-10      1.1000000000E+10       pargp                 1.0000000000E+00      0.0000000000E+00      1          
kh_l0_r0_c47           log                    factor                1.0000000000E+00      1.1000000000E-10      1.1000000000E+10       pargp                 1.0000000000E+00      0.0000000000E+00      1          
kh_l0_r0_c48           log                    factor                1.0000000000E+00      1.1000000000E-10      1.1000000000E+10       pargp                 1.0000000000E+00      0.0000000000E+00      1          
kh_l0_r0_c49           log                    factor                1.0000000000E+00      1.1000000000E-10      1.1000000000E+10       pargp                 1.0000000000E+00      0.0000000000E+00      1          
kh_l0_r0_c5            log                    factor                1.0000000000E+00      1.1000000000E-10      1.1000000000E+10       pargp                 1.0000000000E+00      0.0000000000E+00      1          
kh_l0_r0_c6            log                    factor                1.0000000000E+00      1.1000000000E-10      1.1000000000E+10       pargp                 1.0000000000E+00      0.0000000000E+00      1          
kh_l0_r0_c7            log                    factor                1.0000000000E+00      1.1000000000E-10      1.1000000000E+10       pargp                 1.0000000000E+00      0.0000000000E+00      1          
kh_l0_r0_c8            log                    factor                1.0000000000E+00      1.1000000000E-10      1.1000000000E+10       pargp                 1.0000000000E+00      0.0000000000E+00      1          
kh_l0_r0_c9            log                    factor                1.0000000000E+00      1.1000000000E-10      1.1000000000E+10       pargp                 1.0000000000E+00      0.0000000000E+00      1          
kh_l0_r10_c0           log                    factor                1.0000000000E+00      1.1000000000E-10      1.1000000000E+10       pargp                 1.0000000000E+00      0.0000000000E+00      1          
kh_l0_r10_c1           log                    factor                1.0000000000E+00      1.1000000000E-10      1.1000000000E+10       pargp                 1.0000000000E+00      0.0000000000E+00      1          
kh_l0_r10_c10          log                    factor                1.0000000000E+00      1.1000000000E-10      1.1000000000E+10       pargp                 1.0000000000E+00      0.0000000000E+00      1          
kh_l0_r10_c11          log                    factor                1.0000000000E+00      1.1000000000E-10      1.1000000000E+10       pargp                 1.0000000000E+00      0.0000000000E+00      1          
kh_l0_r10_c12          log                    factor                1.0000000000E+00      1.1000000000E-10      1.1000000000E+10       pargp                 1.0000000000E+00      0.0000000000E+00      1          
kh_l0_r10_c13          log                    factor                1.0000000000E+00      1.1000000000E-10      1.1000000000E+10       pargp                 1.0000000000E+00      0.0000000000E+00      1          
kh_l0_r10_c14          log                    factor                1.0000000000E+00      1.1000000000E-10      1.1000000000E+10       pargp                 1.0000000000E+00      0.0000000000E+00      1          
kh_l0_r10_c15          log                    factor                1.0000000000E+00      1.1000000000E-10      1.1000000000E+10       pargp                 1.0000000000E+00      0.0000000000E+00      1          
kh_l0_r10_c16          log                    factor                1.0000000000E+00      1.1000000000E-10      1.1000000000E+10       pargp                 1.0000000000E+00      0.0000000000E+00      1          
kh_l0_r10_c17          log                    factor                1.0000000000E+00      1.1000000000E-10      1.1000000000E+10       pargp                 1.0000000000E+00      0.0000000000E+00      1          
kh_l0_r10_c18          log                    factor                1.0000000000E+00      1.1000000000E-10      1.1000000000E+10       pargp                 1.0000000000E+00      0.0000000000E+00      1          
kh_l0_r10_c19          log                    factor                1.0000000000E+00      1.1000000000E-10      1.1000000000E+10       pargp                 1.0000000000E+00      0.0000000000E+00      1          
kh_l0_r10_c2           log                    factor                1.0000000000E+00      1.1000000000E-10      1.1000000000E+10       pargp                 1.0000000000E+00      0.0000000000E+00      1          
kh_l0_r10_c20          log                    factor                1.0000000000E+00      1.1000000000E-10      1.1000000000E+10       pargp                 1.0000000000E+00      0.0000000000E+00      1          
kh_l0_r10_c21          log                    factor                1.0000000000E+00      1.1000000000E-10      1.1000000000E+10       pargp                 1.0000000000E+00      0.0000000000E+00      1          
kh_l0_r10_c22          log                    factor                1.0000000000E+00      1.1000000000E-10      1.1000000000E+10       pargp                 1.0000000000E+00      0.0000000000E+00      1          
kh_l0_r10_c23          log                    factor                1.0000000000E+00      1.1000000000E-10      1.1000000000E+10       pargp                 1.0000000000E+00      0.0000000000E+00      1          
kh_l0_r10_c24          log                    factor                1.0000000000E+00      1.1000000000E-10      1.1000000000E+10       pargp                 1.0000000000E+00      0.0000000000E+00      1          
kh_l0_r10_c25          log                    factor                1.0000000000E+00      1.1000000000E-10      1.1000000000E+10       pargp                 1.0000000000E+00      0.0000000000E+00      1          
kh_l0_r10_c26          log                    factor                1.0000000000E+00      1.1000000000E-10      1.1000000000E+10       pargp                 1.0000000000E+00      0.0000000000E+00      1          
kh_l0_r10_c27          log                    factor                1.0000000000E+00      1.1000000000E-10      1.1000000000E+10       pargp                 1.0000000000E+00      0.0000000000E+00      1          
kh_l0_r10_c28          log                    factor                1.0000000000E+00      1.1000000000E-10      1.1000000000E+10       pargp                 1.0000000000E+00      0.0000000000E+00      1          
kh_l0_r10_c29          log                    factor                1.0000000000E+00      1.1000000000E-10      1.1000000000E+10       pargp                 1.0000000000E+00      0.0000000000E+00      1          
kh_l0_r10_c3           log                    factor                1.0000000000E+00      1.1000000000E-10      1.1000000000E+10       pargp                 1.0000000000E+00      0.0000000000E+00      1          
kh_l0_r10_c30          log                    factor                1.0000000000E+00      1.1000000000E-10      1.1000000000E+10       pargp                 1.0000000000E+00      0.0000000000E+00      1          
kh_l0_r10_c31          log                    factor                1.0000000000E+00      1.1000000000E-10      1.1000000000E+10       pargp                 1.0000000000E+00      0.0000000000E+00      1          
kh_l0_r10_c32          log                    factor                1.0000000000E+00      1.1000000000E-10      1.1000000000E+10       pargp                 1.0000000000E+00      0.0000000000E+00      1          
kh_l0_r10_c33          log                    factor                1.0000000000E+00      1.1000000000E-10      1.1000000000E+10       pargp                 1.0000000000E+00      0.0000000000E+00      1          
kh_l0_r10_c34          log                    factor                1.0000000000E+00      1.1000000000E-10      1.1000000000E+10       pargp                 1.0000000000E+00      0.0000000000E+00      1          
kh_l0_r10_c35          log                    factor                1.0000000000E+00      1.1000000000E-10      1.1000000000E+10       pargp                 1.0000000000E+00      0.0000000000E+00      1          
kh_l0_r10_c36          log                    factor                1.0000000000E+00      1.1000000000E-10      1.1000000000E+10       pargp                 1.0000000000E+00      0.0000000000E+00      1          
kh_l0_r10_c37          log                    factor                1.0000000000E+00      1.1000000000E-10      1.1000000000E+10       pargp                 1.0000000000E+00      0.0000000000E+00      1          
kh_l0_r10_c38          log                    factor                1.0000000000E+00      1.1000000000E-10      1.1000000000E+10       pargp                 1.0000000000E+00      0.0000000000E+00      1          
kh_l0_r10_c39          log                    factor                1.0000000000E+00      1.1000000000E-10      1.1000000000E+10       pargp                 1.0000000000E+00      0.0000000000E+00      1          
kh_l0_r10_c4           log                    factor                1.0000000000E+00      1.1000000000E-10      1.1000000000E+10       pargp                 1.0000000000E+00      0.0000000000E+00      1          
kh_l0_r10_c40          log                    factor                1.0000000000E+00      1.1000000000E-10      1.1000000000E+10       pargp                 1.0000000000E+00      0.0000000000E+00      1          
kh_l0_r10_c41          log                    factor                1.0000000000E+00      1.1000000000E-10      1.1000000000E+10       pargp                 1.0000000000E+00      0.0000000000E+00      1          
kh_l0_r10_c42          log                    factor                1.0000000000E+00      1.1000000000E-10      1.1000000000E+10       pargp                 1.0000000000E+00      0.0000000000E+00      1          
kh_l0_r10_c43          log                    factor                1.0000000000E+00      1.1000000000E-10      1.1000000000E+10       pargp                 1.0000000000E+00      0.0000000000E+00      1          
kh_l0_r10_c44          log                    factor                1.0000000000E+00      1.1000000000E-10      1.1000000000E+10       pargp                 1.0000000000E+00      0.0000000000E+00      1          
kh_l0_r10_c45          log                    factor                1.0000000000E+00      1.1000000000E-10      1.1000000000E+10       pargp                 1.0000000000E+00      0.0000000000E+00      1          
kh_l0_r10_c46          log                    factor                1.0000000000E+00      1.1000000000E-10      1.1000000000E+10       pargp                 1.0000000000E+00      0.0000000000E+00      1          
kh_l0_r10_c47          log                    factor                1.0000000000E+00      1.1000000000E-10      1.1000000000E+10       pargp                 1.0000000000E+00      0.0000000000E+00      1          
kh_l0_r10_c48          log                    factor                1.0000000000E+00      1.1000000000E-10      1.1000000000E+10       pargp                 1.0000000000E+00      0.0000000000E+00      1          
kh_l0_r10_c49          log                    factor                1.0000000000E+00      1.1000000000E-10      1.1000000000E+10       pargp                 1.0000000000E+00      0.0000000000E+00      1          
kh_l0_r10_c5           log                    factor                1.0000000000E+00      1.1000000000E-10      1.1000000000E+10       pargp                 1.0000000000E+00      0.0000000000E+00      1          
kh_l0_r10_c6           log                    factor                1.0000000000E+00      1.1000000000E-10      1.1000000000E+10       pargp                 1.0000000000E+00      0.0000000000E+00      1          
kh_l0_r10_c7           log                    factor                1.0000000000E+00      1.1000000000E-10      1.1000000000E+10       pargp                 1.0000000000E+00      0.0000000000E+00      1          
kh_l0_r10_c8           log                    factor                1.0000000000E+00      1.1000000000E-10      1.1000000000E+10       pargp                 1.0000000000E+00      0.0000000000E+00      1          
kh_l0_r10_c9           log                    factor                1.0000000000E+00      1.1000000000E-10      1.1000000000E+10       pargp                 1.0000000000E+00      0.0000000000E+00      1          
kh_l0_r11_c0           log                    factor                1.0000000000E+00      1.1000000000E-10      1.1000000000E+10       pargp                 1.0000000000E+00      0.0000000000E+00      1          
kh_l0_r11_c1           log                    factor                1.0000000000E+00      1.1000000000E-10      1.1000000000E+10       pargp                 1.0000000000E+00      0.0000000000E+00      1          
kh_l0_r11_c10          log                    factor                1.0000000000E+00      1.1000000000E-10      1.1000000000E+10       pargp                 1.0000000000E+00      0.0000000000E+00      1          
kh_l0_r11_c11          log                    factor                1.0000000000E+00      1.1000000000E-10      1.1000000000E+10       pargp                 1.0000000000E+00      0.0000000000E+00      1          
kh_l0_r11_c12          log                    factor                1.0000000000E+00      1.1000000000E-10      1.1000000000E+10       pargp                 1.0000000000E+00      0.0000000000E+00      1          
kh_l0_r11_c13          log                    factor                1.0000000000E+00      1.1000000000E-10      1.1000000000E+10       pargp                 1.0000000000E+00      0.0000000000E+00      1          
kh_l0_r11_c14          log                    factor                1.0000000000E+00      1.1000000000E-10      1.1000000000E+10       pargp                 1.0000000000E+00      0.0000000000E+00      1          
kh_l0_r11_c15          log                    factor                1.0000000000E+00      1.1000000000E-10      1.1000000000E+10       pargp                 1.0000000000E+00      0.0000000000E+00      1          
kh_l0_r11_c16          log                    factor                1.0000000000E+00      1.1000000000E-10      1.1000000000E+10       pargp                 1.0000000000E+00      0.0000000000E+00      1          
kh_l0_r11_c17          log                    factor                1.0000000000E+00      1.1000000000E-10      1.1000000000E+10       pargp                 1.0000000000E+00      0.0000000000E+00      1          
kh_l0_r11_c18          log                    factor                1.0000000000E+00      1.1000000000E-10      1.1000000000E+10       pargp                 1.0000000000E+00      0.0000000000E+00      1          
kh_l0_r11_c19          log                    factor                1.0000000000E+00      1.1000000000E-10      1.1000000000E+10       pargp                 1.0000000000E+00      0.0000000000E+00      1          
kh_l0_r11_c2           log                    factor                1.0000000000E+00      1.1000000000E-10      1.1000000000E+10       pargp                 1.0000000000E+00      0.0000000000E+00      1          
kh_l0_r11_c20          log                    factor                1.0000000000E+00      1.1000000000E-10      1.1000000000E+10       pargp                 1.0000000000E+00      0.0000000000E+00      1          
kh_l0_r11_c21          log                    factor                1.0000000000E+00      1.1000000000E-10      1.1000000000E+10       pargp                 1.0000000000E+00      0.0000000000E+00      1          
kh_l0_r11_c22          log                    factor                1.0000000000E+00      1.1000000000E-10      1.1000000000E+10       pargp                 1.0000000000E+00      0.0000000000E+00      1          
kh_l0_r11_c23          log                    factor                1.0000000000E+00      1.1000000000E-10      1.1000000000E+10       pargp                 1.0000000000E+00      0.0000000000E+00      1          
kh_l0_r11_c24          log                    factor                1.0000000000E+00      1.1000000000E-10      1.1000000000E+10       pargp                 1.0000000000E+00      0.0000000000E+00      1          
kh_l0_r11_c25          log                    factor                1.0000000000E+00      1.1000000000E-10      1.1000000000E+10       pargp                 1.0000000000E+00      0.0000000000E+00      1          
kh_l0_r11_c26          log                    factor                1.0000000000E+00      1.1000000000E-10      1.1000000000E+10       pargp                 1.0000000000E+00      0.0000000000E+00      1          
kh_l0_r11_c27          log                    factor                1.0000000000E+00      1.1000000000E-10      1.1000000000E+10       pargp                 1.0000000000E+00      0.0000000000E+00      1          
kh_l0_r11_c28          log                    factor                1.0000000000E+00      1.1000000000E-10      1.1000000000E+10       pargp                 1.0000000000E+00      0.0000000000E+00      1          
kh_l0_r11_c29          log                    factor                1.0000000000E+00      1.1000000000E-10      1.1000000000E+10       pargp                 1.0000000000E+00      0.0000000000E+00      1          
kh_l0_r11_c3           log                    factor                1.0000000000E+00      1.1000000000E-10      1.1000000000E+10       pargp                 1.0000000000E+00      0.0000000000E+00      1          
kh_l0_r11_c30          log                    factor                1.0000000000E+00      1.1000000000E-10      1.1000000000E+10       pargp                 1.0000000000E+00      0.0000000000E+00      1          
kh_l0_r11_c31          log                    factor                1.0000000000E+00      1.1000000000E-10      1.1000000000E+10       pargp                 1.0000000000E+00      0.0000000000E+00      1          
kh_l0_r11_c32          log                    factor                1.0000000000E+00      1.1000000000E-10      1.1000000000E+10       pargp                 1.0000000000E+00      0.0000000000E+00      1          
kh_l0_r11_c33          log                    factor                1.0000000000E+00      1.1000000000E-10      1.1000000000E+10       pargp                 1.0000000000E+00      0.0000000000E+00      1          
kh_l0_r11_c34          log                    factor                1.0000000000E+00      1.1000000000E-10      1.1000000000E+10       pargp                 1.0000000000E+00      0.0000000000E+00      1          
kh_l0_r11_c35          log                    factor                1.0000000000E+00      1.1000000000E-10      1.1000000000E+10       pargp                 1.0000000000E+00      0.0000000000E+00      1          
kh_l0_r11_c36          log                    factor                1.0000000000E+00      1.1000000000E-10      1.1000000000E+10       pargp                 1.0000000000E+00      0.0000000000E+00      1          
kh_l0_r11_c37          log                    factor                1.0000000000E+00      1.1000000000E-10      1.1000000000E+10       pargp                 1.0000000000E+00      0.0000000000E+00      1          
kh_l0_r11_c38          log                    factor                1.0000000000E+00      1.1000000000E-10      1.1000000000E+10       pargp                 1.0000000000E+00      0.0000000000E+00      1          
kh_l0_r11_c39          log                    factor                1.0000000000E+00      1.1000000000E-10      1.1000000000E+10       pargp                 1.0000000000E+00      0.0000000000E+00      1          
kh_l0_r11_c4           log                    factor                1.0000000000E+00      1.1000000000E-10      1.1000000000E+10       pargp                 1.0000000000E+00      0.0000000000E+00      1          