# WEL package for  MODFLOW-NWT, generated by Flopy.
         1         0
         0         0 # stress period 1
         1         0 # stress period 2
         1        25        25  -5.0000000E+03
