# OC package for  MODFLOW-NWT, generated by Flopy.
HEAD PRINT FORMAT   0
HEAD SAVE FORMAT (10(1X1PE13.5))      LABEL
HEAD SAVE UNIT    37
DRAWDOWN PRINT FORMAT   0
DRAWDOWN SAVE FORMAT (10(1X1PE13.5))      LABEL
DRAWDOWN SAVE UNIT    38
COMPACT BUDGET AUX

period 2 step 199 
  save head
  save drawdown
  save budget
  print budget

period 2 step 200 
  save head
  save drawdown
  save budget
  print budget

