# Name file for MODFLOW-NWT, generated by Flopy version 3.2.10.
#xul:0; yul:1000; rotation:0; proj4_str:None; units:meters; lenuni:2; length_multiplier:1.0 ;start_datetime:01-01-1970
LIST              11  ppmodel.list
DIS               12  ppmodel.dis 
BAS6              13  ppmodel.bas 
OC                39  ppmodel.oc 
NWT              133  ppmodel.nwt 
UPW              134  ppmodel.upw 
HOB               41  ppmodel.hob 
WEL               20  ppmodel.wel 
GHB               23  ppmodel.ghb 
DATA(BINARY)      37  ppmodel.fhd
DATA(BINARY)      38  ppmodel.fdn
DATA(BINARY)       9  ppmodel.cbc REPLACE
DATA              42  ppmodel.hob_out
