# Basic package file for MODFLOW, generated by Flopy.
 FREE
OPEN/CLOSE      ref_cal/ibound_Layer_1.ref               1    (10I10) -1  #ibound Layer 1                
        -999.99
OPEN/CLOSE        ref_cal/strt_Layer_1.ref               1  (FREE) -1  #strt Layer 1                  
