# Well file for MODFLOW, generated by Flopy.
        10         0
        10         0
        1         1         1  4.5000000E-01
        2         1         1  4.5000000E-01
        3         1         1  4.5000000E-01
        4         1         1  4.5000000E-01
        5         1         1  4.5000000E-01
        6         1         1  4.5000000E-01
        7         1         1  4.5000000E-01
        8         1         1  4.5000000E-01
        9         1         1  4.5000000E-01
       10         1         1  4.5000000E-01
        10         0
        1         1         1  0.000000e+00
        2         1         1  0.000000e+00
        3         1         1  0.000000e+00
        4         1         1  0.000000e+00
        5         1         1  0.000000e+00
        6         1         1  0.000000e+00
        7         1         1  0.000000e+00
        8         1         1  0.000000e+00
        9         1         1  0.000000e+00
       10         1         1  0.000000e+00
