# Basic package file for MODFLOW, generated by Flopy.
 FREE
OPEN/CLOSE ref_coarse\ibound_1.ref         1 (5I4)                -1 IBOUND Array for Layer
OPEN/CLOSE ref_coarse\ibound_2.ref         1 (5I4)                -1 IBOUND Array for Layer
OPEN/CLOSE ref_coarse\ibound_3.ref         1 (5I4)                -1 IBOUND Array for Layer
OPEN/CLOSE ref_coarse\ibound_4.ref         1 (5I4)                -1 IBOUND Array for Layer
OPEN/CLOSE ref_coarse\ibound_5.ref         1 (5I4)                -1 IBOUND Array for Layer
OPEN/CLOSE ref_coarse\ibound_6.ref         1 (5I4)                -1 IBOUND Array for Layer
OPEN/CLOSE ref_coarse\ibound_7.ref         1 (5I4)                -1 IBOUND Array for Layer
OPEN/CLOSE ref_coarse\ibound_8.ref         1 (5I4)                -1 IBOUND Array for Layer
OPEN/CLOSE ref_coarse\ibound_9.ref         1 (5I4)                -1 IBOUND Array for Layer
OPEN/CLOSE ref_coarse\ibound_10.ref        1 (5I4)                -1 IBOUND Array for Layer
OPEN/CLOSE ref_coarse\ibound_11.ref        1 (5I4)                -1 IBOUND Array for Layer
OPEN/CLOSE ref_coarse\ibound_12.ref        1 (5I4)                -1 IBOUND Array for Layer
OPEN/CLOSE ref_coarse\ibound_13.ref        1 (5I4)                -1 IBOUND Array for Layer
OPEN/CLOSE ref_coarse\ibound_14.ref        1 (5I4)                -1 IBOUND Array for Layer
OPEN/CLOSE ref_coarse\ibound_15.ref        1 (5I4)                -1 IBOUND Array for Layer
OPEN/CLOSE ref_coarse\ibound_16.ref        1 (5I4)                -1 IBOUND Array for Layer
OPEN/CLOSE ref_coarse\ibound_17.ref        1 (5I4)                -1 IBOUND Array for Layer
OPEN/CLOSE ref_coarse\ibound_18.ref        1 (5I4)                -1 IBOUND Array for Layer
OPEN/CLOSE ref_coarse\ibound_19.ref        1 (5I4)                -1 IBOUND Array for Layer
OPEN/CLOSE ref_coarse\ibound_20.ref        1 (5I4)                -1 IBOUND Array for Layer
-999.990000
OPEN/CLOSE ref_coarse\strt_1.ref           1 (5G13.0)             -1 Starting Heads in Layer
OPEN/CLOSE ref_coarse\strt_2.ref           1 (5G13.0)             -1 Starting Heads in Layer
OPEN/CLOSE ref_coarse\strt_3.ref           1 (5G13.0)             -1 Starting Heads in Layer
OPEN/CLOSE ref_coarse\strt_4.ref           1 (5G13.0)             -1 Starting Heads in Layer
OPEN/CLOSE ref_coarse\strt_5.ref           1 (5G13.0)             -1 Starting Heads in Layer
OPEN/CLOSE ref_coarse\strt_6.ref           1 (5G13.0)             -1 Starting Heads in Layer
OPEN/CLOSE ref_coarse\strt_7.ref           1 (5G13.0)             -1 Starting Heads in Layer
OPEN/CLOSE ref_coarse\strt_8.ref           1 (5G13.0)             -1 Starting Heads in Layer
OPEN/CLOSE ref_coarse\strt_9.ref           1 (5G13.0)             -1 Starting Heads in Layer
OPEN/CLOSE ref_coarse\strt_10.ref          1 (5G13.0)             -1 Starting Heads in Layer
OPEN/CLOSE ref_coarse\strt_11.ref          1 (5G13.0)             -1 Starting Heads in Layer
OPEN/CLOSE ref_coarse\strt_12.ref          1 (5G13.0)             -1 Starting Heads in Layer
OPEN/CLOSE ref_coarse\strt_13.ref          1 (5G13.0)             -1 Starting Heads in Layer
OPEN/CLOSE ref_coarse\strt_14.ref          1 (5G13.0)             -1 Starting Heads in Layer
OPEN/CLOSE ref_coarse\strt_15.ref          1 (5G13.0)             -1 Starting Heads in Layer
OPEN/CLOSE ref_coarse\strt_16.ref          1 (5G13.0)             -1 Starting Heads in Layer
OPEN/CLOSE ref_coarse\strt_17.ref          1 (5G13.0)             -1 Starting Heads in Layer
OPEN/CLOSE ref_coarse\strt_18.ref          1 (5G13.0)             -1 Starting Heads in Layer
OPEN/CLOSE ref_coarse\strt_19.ref          1 (5G13.0)             -1 Starting Heads in Layer
OPEN/CLOSE ref_coarse\strt_20.ref          1 (5G13.0)             -1 Starting Heads in Layer
