# Name file for MODFLOW-2005, generated by Flopy.
#xul:0; yul:2000; rotation:0; proj4_str:+init=EPSG:4326; units:meters; lenuni:0 ;start_datetime:1/1/1970
LIST           2 dewater_pest.list
DIS           11 dewater_pest.dis 
BAS6          13 dewater_pest.bas 
BCF6          15 dewater_pest.bcf 
PCG           27 dewater_pest.pcg 
WEL           20 dewater_pest.wel 
OC            14 dewater_pest.oc 
DATA          51 dewater_pest.hds REPLACE
DATA(BINARY)  52 dewater_pest.ddn REPLACE
DATA(BINARY)  53 dewater_pest.cbc REPLACE
